<?xml version="1.0" encoding="UTF-8"?>

<!-- generated on 2025-04-03 15:00:07 by Eclipse SUMO netconvert Version 1.22.0
<netconvertConfiguration xmlns:xsi="http://www.w3.org/2001/XMLSchema-instance" xsi:noNamespaceSchemaLocation="http://sumo.dlr.de/xsd/netconvertConfiguration.xsd">

    <input>
        <sumo-net-file value="map.net.xml"/>
    </input>

    <output>
        <plain-output-prefix value="map"/>
    </output>

    <processing>
        <geometry.min-radius.fix.railways value="false"/>
        <geometry.max-grade.fix value="false"/>
        <offset.disable-normalization value="true"/>
        <lefthand value="0"/>
    </processing>

    <junctions>
        <no-turnarounds value="true"/>
        <junctions.corner-detail value="5"/>
        <junctions.limit-turn-speed value="5.50"/>
        <rectangular-lane-cut value="0"/>
    </junctions>

    <pedestrian>
        <walkingareas value="0"/>
    </pedestrian>

</netconvertConfiguration>
-->

<connections version="1.20" xmlns:xsi="http://www.w3.org/2001/XMLSchema-instance" xsi:noNamespaceSchemaLocation="http://sumo.dlr.de/xsd/connections_file.xsd">
    <connection from="-1006435309" to="-975485854" fromLane="0" toLane="0"/>

    <connection from="-1009365871#0" to="-1009365875#1" fromLane="0" toLane="0"/>
    <connection from="-1009365871#0" to="1281584087" fromLane="0" toLane="0"/>
    <connection from="-1009365871#0" to="1009365871#0" fromLane="0" toLane="0"/>

    <connection from="-1009365871#1" to="-1009365871#0" fromLane="0" toLane="0"/>
    <connection from="-1009365871#1" to="1009365871#1" fromLane="0" toLane="0"/>

    <connection from="-1009365872" to="354892201#0" fromLane="0" toLane="0"/>
    <connection from="-1009365872" to="1009365872" fromLane="0" toLane="0"/>

    <connection from="-1009365873" to="-354892176#1" fromLane="0" toLane="0"/>
    <connection from="-1009365873" to="1226388270" fromLane="0" toLane="0"/>

    <connection from="-1009365874" to="-264545302#2" fromLane="0" toLane="0"/>
    <connection from="-1009365874" to="-264545303" fromLane="0" toLane="0"/>
    <connection from="-1009365874" to="1009365874" fromLane="0" toLane="0"/>

    <connection from="-1009365875#0" to="501656553" fromLane="0" toLane="0"/>
    <connection from="-1009365875#0" to="-327137974#1" fromLane="0" toLane="0"/>
    <connection from="-1009365875#0" to="1009365875#0" fromLane="0" toLane="0"/>

    <connection from="-1009365875#1" to="-689450388#0" fromLane="0" toLane="0"/>
    <connection from="-1009365875#1" to="-1009365875#0" fromLane="0" toLane="0"/>
    <connection from="-1009365875#1" to="689450388#1" fromLane="0" toLane="0"/>
    <connection from="-1009365875#1" to="1009365875#1" fromLane="0" toLane="0"/>

    <connection from="-1013458987" to="219919810" fromLane="0" toLane="0"/>
    <connection from="-1013458987" to="-502832627#3" fromLane="0" toLane="0"/>
    <connection from="-1013458987" to="1013458987" fromLane="0" toLane="0"/>

    <connection from="-1019042521" to="-1305541021#3" fromLane="0" toLane="0"/>

    <connection from="-1061416827#0" to="-1316962759" fromLane="0" toLane="0"/>

    <connection from="-1061416827#1" to="136440683#1" fromLane="0" toLane="0"/>
    <connection from="-1061416827#1" to="-1061416827#0" fromLane="0" toLane="0"/>
    <connection from="-1061416827#1" to="-136440683#0" fromLane="0" toLane="0"/>
    <connection from="-1061416827#1" to="1061416827#1" fromLane="0" toLane="0"/>

    <connection from="-1061416830" to="-136440683#2" fromLane="0" toLane="0"/>
    <connection from="-1061416830" to="136440683#3" fromLane="0" toLane="0"/>
    <connection from="-1061416830" to="1061416830" fromLane="0" toLane="0"/>

    <connection from="-1061416835" to="-127242070#0" fromLane="0" toLane="0"/>
    <connection from="-1061416835" to="127242070#1" fromLane="0" toLane="0"/>
    <connection from="-1061416835" to="1061416835" fromLane="0" toLane="0"/>

    <connection from="-1061416837" to="-79264935#2" fromLane="0" toLane="0"/>
    <connection from="-1061416837" to="79264935#3" fromLane="0" toLane="0"/>
    <connection from="-1061416837" to="1061416837" fromLane="0" toLane="0"/>

    <connection from="-1061416838" to="136440667#9" fromLane="0" toLane="0"/>
    <connection from="-1061416838" to="-136440667#8" fromLane="0" toLane="0"/>
    <connection from="-1061416838" to="1061416838" fromLane="0" toLane="0"/>

    <connection from="-1061416839" to="136440667#8" fromLane="0" toLane="0"/>
    <connection from="-1061416839" to="-136440667#7" fromLane="0" toLane="0"/>
    <connection from="-1061416839" to="1061416839" fromLane="0" toLane="0"/>

    <connection from="-1061416841" to="136440667#4" fromLane="0" toLane="0"/>
    <connection from="-1061416841" to="-136440667#3" fromLane="0" toLane="0"/>
    <connection from="-1061416841" to="1061416841" fromLane="0" toLane="0"/>

    <connection from="-1061416854#0" to="-1009365872" fromLane="0" toLane="0"/>
    <connection from="-1061416854#0" to="-1009365871#1" fromLane="0" toLane="0"/>
    <connection from="-1061416854#0" to="354892176#0" fromLane="0" toLane="0"/>
    <connection from="-1061416854#0" to="1061416854#0" fromLane="0" toLane="0"/>

    <connection from="-1061416854#1" to="823506810#0" fromLane="0" toLane="0"/>
    <connection from="-1061416854#1" to="-1061416854#0" fromLane="0" toLane="0"/>
    <connection from="-1061416854#1" to="1061416854#1" fromLane="0" toLane="0"/>

    <connection from="-1061416857" to="195202615#3" fromLane="0" toLane="0"/>
    <connection from="-1061416857" to="-195202615#2" fromLane="0" toLane="0"/>
    <connection from="-1061416857" to="1061416857" fromLane="0" toLane="0"/>

    <connection from="-1061416858#0" to="-1061416854#1" fromLane="0" toLane="0"/>

    <connection from="-1061416858#1" to="-1061416857" fromLane="0" toLane="0"/>
    <connection from="-1061416858#1" to="-1061416858#0" fromLane="0" toLane="0"/>
    <connection from="-1061416858#1" to="1061416858#1" fromLane="0" toLane="0"/>

    <connection from="-1061537596" to="-356778498#0" fromLane="0" toLane="0"/>
    <connection from="-1061537596" to="356778498#1" fromLane="0" toLane="0"/>
    <connection from="-1061537596" to="1061537596" fromLane="0" toLane="0"/>

    <connection from="-1061721284" to="79264928#2" fromLane="0" toLane="0"/>
    <connection from="-1061721284" to="-79264928#1" fromLane="0" toLane="0"/>
    <connection from="-1061721284" to="1061721284" fromLane="0" toLane="0"/>

    <connection from="-1061721289" to="1061721289" fromLane="0" toLane="0"/>

    <connection from="-1061721329#0" to="-509605385#1" fromLane="0" toLane="0"/>
    <connection from="-1061721329#0" to="509605385#2" fromLane="0" toLane="0"/>
    <connection from="-1061721329#0" to="1061721329#0" fromLane="0" toLane="0"/>

    <connection from="-1061721329#1" to="-1061721329#0" fromLane="0" toLane="0"/>
    <connection from="-1061721329#1" to="1061721329#1" fromLane="0" toLane="0"/>

    <connection from="-1061721330#0" to="509605384#5" fromLane="0" toLane="0"/>
    <connection from="-1061721330#0" to="-509605384#4" fromLane="0" toLane="0"/>
    <connection from="-1061721330#0" to="1061721330#0" fromLane="0" toLane="0"/>

    <connection from="-1061721330#1" to="-1061721330#0" fromLane="0" toLane="0"/>
    <connection from="-1061721330#1" to="1061721330#1" fromLane="0" toLane="0"/>

    <connection from="-1061721332" to="-501652764" fromLane="0" toLane="0"/>
    <connection from="-1061721332" to="-429619210#3" fromLane="0" toLane="0"/>
    <connection from="-1061721332" to="502832627#0" fromLane="0" toLane="0"/>
    <connection from="-1061721332" to="1061721332" fromLane="0" toLane="0"/>

    <connection from="-1070599956" to="-136440667#6" fromLane="0" toLane="0"/>
    <connection from="-1070599956" to="136440667#7" fromLane="0" toLane="0"/>
    <connection from="-1070599956" to="1070599956" fromLane="0" toLane="0"/>

    <connection from="-1070599957" to="-219429186#0" fromLane="0" toLane="0"/>
    <connection from="-1070599957" to="219429186#1" fromLane="0" toLane="0"/>
    <connection from="-1070599957" to="1070599957" fromLane="0" toLane="0"/>

    <connection from="-1070599958" to="1070599958" fromLane="0" toLane="0"/>

    <connection from="-1090269919" to="1090269919" fromLane="0" toLane="0"/>

    <connection from="-1090274271" to="-1090274272" fromLane="0" toLane="0"/>
    <connection from="-1090274271" to="-711957605" fromLane="0" toLane="0"/>
    <connection from="-1090274271" to="1090274271" fromLane="0" toLane="0"/>

    <connection from="-1090274272" to="691602161" fromLane="0" toLane="0"/>

    <connection from="-1095588885" to="-110901124#1" fromLane="0" toLane="0"/>
    <connection from="-1095588885" to="217785655" fromLane="0" toLane="0"/>
    <connection from="-1095588885" to="1095588885" fromLane="0" toLane="0"/>

    <connection from="-110901124#0" to="110901124#0" fromLane="0" toLane="0"/>

    <connection from="-110901124#1" to="1281967231" fromLane="0" toLane="0"/>
    <connection from="-110901124#1" to="-110901124#0" fromLane="0" toLane="0"/>

    <connection from="-1161066379" to="1161066379" fromLane="0" toLane="0"/>

    <connection from="-1161066380#0" to="-1281967216#2" fromLane="0" toLane="0"/>
    <connection from="-1161066380#0" to="1281967216#3" fromLane="0" toLane="0"/>
    <connection from="-1161066380#0" to="1161066380#0" fromLane="0" toLane="0"/>

    <connection from="-1161066380#1" to="-1161066380#2" fromLane="0" toLane="0"/>
    <connection from="-1161066380#1" to="-1161066380#0" fromLane="0" toLane="0"/>
    <connection from="-1161066380#1" to="1161066380#1" fromLane="0" toLane="0"/>

    <connection from="-1161066380#2" to="-1161066380#1" fromLane="0" toLane="0"/>

    <connection from="-1226388270" to="1009365873" fromLane="0" toLane="0"/>
    <connection from="-1226388270" to="-354892176#1" fromLane="0" toLane="0"/>
    <connection from="-1226388270" to="1226388270" fromLane="0" toLane="0"/>

    <connection from="-1234109633#0" to="274570918#1" fromLane="0" toLane="0"/>
    <connection from="-1234109633#0" to="-274570918#0" fromLane="0" toLane="0"/>
    <connection from="-1234109633#0" to="1234109633#0" fromLane="0" toLane="0"/>

    <connection from="-1234109633#1" to="-1234109633#0" fromLane="0" toLane="0"/>
    <connection from="-1234109633#1" to="1234109633#1" fromLane="0" toLane="0"/>

    <connection from="-127242070#0" to="127242070#0" fromLane="0" toLane="0"/>

    <connection from="-127242070#1" to="1061416835" fromLane="0" toLane="0"/>
    <connection from="-127242070#1" to="-127242070#0" fromLane="0" toLane="0"/>
    <connection from="-127242070#1" to="127242070#1" fromLane="0" toLane="0"/>

    <connection from="-128073698#0" to="128073698#0" fromLane="0" toLane="0"/>

    <connection from="-128073698#1" to="-128073698#0" fromLane="0" toLane="0"/>
    <connection from="-128073698#1" to="356778532#0" fromLane="0" toLane="0"/>
    <connection from="-128073698#1" to="128073698#1" fromLane="0" toLane="0"/>

    <connection from="-128073698#2" to="-429619210#0" fromLane="0" toLane="0"/>
    <connection from="-128073698#2" to="-128073698#1" fromLane="0" toLane="0"/>
    <connection from="-128073698#2" to="429619210#1" fromLane="0" toLane="0"/>

    <connection from="-1281584087" to="1009365871#0" fromLane="0" toLane="0"/>
    <connection from="-1281584087" to="-1009365875#1" fromLane="0" toLane="0"/>
    <connection from="-1281584087" to="1281584087" fromLane="0" toLane="0"/>

    <connection from="-1281967150" to="-327137881#1" fromLane="0" toLane="0"/>
    <connection from="-1281967150" to="327137881#2" fromLane="0" toLane="0"/>
    <connection from="-1281967150" to="1281967150" fromLane="0" toLane="0"/>

    <connection from="-1281967166" to="1281967166" fromLane="0" toLane="0"/>

    <connection from="-1281967167#0" to="-701831726#0" fromLane="0" toLane="0"/>
    <connection from="-1281967167#0" to="701831726#1" fromLane="0" toLane="0"/>
    <connection from="-1281967167#0" to="1281967167#0" fromLane="0" toLane="0"/>

    <connection from="-1281967167#1" to="689450388#6" fromLane="0" toLane="0"/>
    <connection from="-1281967167#1" to="-1281967167#0" fromLane="0" toLane="0"/>
    <connection from="-1281967167#1" to="-689450388#5" fromLane="0" toLane="0"/>
    <connection from="-1281967167#1" to="1281967167#1" fromLane="0" toLane="0"/>

    <connection from="-1281967170#0" to="1281967170#0" fromLane="0" toLane="0"/>

    <connection from="-1281967170#1" to="-689450388#4" fromLane="0" toLane="0"/>
    <connection from="-1281967170#1" to="-1281967170#0" fromLane="0" toLane="0"/>
    <connection from="-1281967170#1" to="689450388#5" fromLane="0" toLane="0"/>
    <connection from="-1281967170#1" to="1281967170#1" fromLane="0" toLane="0"/>

    <connection from="-1281967172" to="1281967172" fromLane="0" toLane="0"/>

    <connection from="-1281967173" to="1281967173" fromLane="0" toLane="0"/>

    <connection from="-1281967175#0" to="1281967175#0" fromLane="0" toLane="0"/>

    <connection from="-1281967175#1" to="-689450388#3" fromLane="0" toLane="0"/>
    <connection from="-1281967175#1" to="-1281967175#0" fromLane="0" toLane="0"/>
    <connection from="-1281967175#1" to="689450388#4" fromLane="0" toLane="0"/>
    <connection from="-1281967175#1" to="1281967175#1" fromLane="0" toLane="0"/>

    <connection from="-1281967179" to="-1281967206#0" fromLane="0" toLane="0"/>
    <connection from="-1281967179" to="1281967206#1" fromLane="0" toLane="0"/>
    <connection from="-1281967179" to="1281967179" fromLane="0" toLane="0"/>

    <connection from="-1281967186" to="1281967186" fromLane="0" toLane="0"/>

    <connection from="-1281967189" to="356778497#2" fromLane="0" toLane="0"/>
    <connection from="-1281967189" to="-356778497#1" fromLane="0" toLane="0"/>
    <connection from="-1281967189" to="1281967189" fromLane="0" toLane="0"/>

    <connection from="-1281967204" to="1281967220#1" fromLane="0" toLane="0"/>
    <connection from="-1281967204" to="-1281967220#0" fromLane="0" toLane="0"/>
    <connection from="-1281967204" to="1281967204" fromLane="0" toLane="0"/>

    <connection from="-1281967205" to="-1281967206#1" fromLane="0" toLane="0"/>

    <connection from="-1281967206#0" to="-1281967204" fromLane="0" toLane="0" keepClear="0"/>

    <connection from="-1281967206#1" to="1281967179" fromLane="0" toLane="0"/>
    <connection from="-1281967206#1" to="-1281967206#0" fromLane="0" toLane="0"/>
    <connection from="-1281967206#1" to="1281967206#1" fromLane="0" toLane="0"/>

    <connection from="-1281967209" to="1281967209" fromLane="0" toLane="0"/>

    <connection from="-1281967211" to="1281967211" fromLane="0" toLane="0"/>

    <connection from="-1281967214" to="1281967214" fromLane="0" toLane="0"/>

    <connection from="-1281967215" to="1281967215" fromLane="0" toLane="0"/>

    <connection from="-1281967216#0" to="-127242070#1" fromLane="0" toLane="0"/>
    <connection from="-1281967216#0" to="-217790278" fromLane="0" toLane="0"/>
    <connection from="-1281967216#0" to="1281967216#0" fromLane="0" toLane="0"/>

    <connection from="-1281967216#1" to="-356778536" fromLane="0" toLane="0"/>
    <connection from="-1281967216#1" to="-1281967216#0" fromLane="0" toLane="0"/>
    <connection from="-1281967216#1" to="1281967216#1" fromLane="0" toLane="0"/>

    <connection from="-1281967216#2" to="-1281967216#1" fromLane="0" toLane="0"/>
    <connection from="-1281967216#2" to="-1161066379" fromLane="0" toLane="0"/>

    <connection from="-1281967216#3" to="1161066380#0" fromLane="0" toLane="0"/>
    <connection from="-1281967216#3" to="-1281967216#2" fromLane="0" toLane="0"/>

    <connection from="-1281967218" to="1281967218" fromLane="0" toLane="0"/>

    <connection from="-1281967220#0" to="-327137974#0" fromLane="0" toLane="0"/>
    <connection from="-1281967220#0" to="327137974#1" fromLane="0" toLane="0"/>
    <connection from="-1281967220#0" to="1281967220#0" fromLane="0" toLane="0"/>

    <connection from="-1281967220#1" to="-1281967220#0" fromLane="0" toLane="0"/>
    <connection from="-1281967220#1" to="1281967204" fromLane="0" toLane="0"/>
    <connection from="-1281967220#1" to="1281967220#1" fromLane="0" toLane="0"/>

    <connection from="-1281967231" to="-110901124#0" fromLane="0" toLane="0"/>
    <connection from="-1281967231" to="110901124#1" fromLane="0" toLane="0"/>
    <connection from="-1281967231" to="1281967231" fromLane="0" toLane="0"/>

    <connection from="-1281967232" to="1281967232" fromLane="0" toLane="0"/>

    <connection from="-1281967233" to="1281967233" fromLane="0" toLane="0"/>

    <connection from="-1281967271#0" to="79264935#1" fromLane="0" toLane="0"/>
    <connection from="-1281967271#0" to="-79264935#0" fromLane="0" toLane="0"/>
    <connection from="-1281967271#0" to="1281967271#0" fromLane="0" toLane="0"/>

    <connection from="-1281967271#1" to="-1281967271#0" fromLane="0" toLane="0"/>
    <connection from="-1281967271#1" to="-1281967271#2" fromLane="0" toLane="0"/>
    <connection from="-1281967271#1" to="1281967271#1" fromLane="0" toLane="0"/>

    <connection from="-1281967271#2" to="-1281967271#1" fromLane="0" toLane="0"/>

    <connection from="-1281967274" to="1281967274" fromLane="0" toLane="0"/>

    <connection from="-1281967278" to="1281967278" fromLane="0" toLane="0"/>

    <connection from="-1282385833#0" to="1282385833#0" fromLane="0" toLane="0"/>

    <connection from="-1282385833#1" to="-1282385833#0" fromLane="0" toLane="0"/>
    <connection from="-1282385833#1" to="217790278" fromLane="0" toLane="0"/>
    <connection from="-1282385833#1" to="-217790282" fromLane="0" toLane="0"/>
    <connection from="-1282385833#1" to="1282385833#1" fromLane="0" toLane="0"/>

    <connection from="-1282418714" to="1305541021#1" fromLane="0" toLane="0"/>
    <connection from="-1282418714" to="-1305541021#0" fromLane="0" toLane="0"/>
    <connection from="-1282418714" to="1282418714" fromLane="0" toLane="0"/>

    <connection from="-1282418722" to="1282418724#1" fromLane="0" toLane="0"/>
    <connection from="-1282418722" to="-1282418724#0" fromLane="0" toLane="0"/>
    <connection from="-1282418722" to="1282418722" fromLane="0" toLane="0"/>

    <connection from="-1282418723#0" to="1282418723#0" fromLane="0" toLane="0"/>

    <connection from="-1282418723#1" to="1282418724#2" fromLane="0" toLane="0"/>
    <connection from="-1282418723#1" to="-1282418723#0" fromLane="0" toLane="0"/>
    <connection from="-1282418723#1" to="-1282418724#1" fromLane="0" toLane="0"/>
    <connection from="-1282418723#1" to="1282418723#1" fromLane="0" toLane="0"/>

    <connection from="-1282418724#0" to="1282418725#1" fromLane="0" toLane="0"/>
    <connection from="-1282418724#0" to="-1282418725#0" fromLane="0" toLane="0"/>
    <connection from="-1282418724#0" to="1282418724#0" fromLane="0" toLane="0"/>

    <connection from="-1282418724#1" to="-1282418724#0" fromLane="0" toLane="0"/>
    <connection from="-1282418724#1" to="1282418722" fromLane="0" toLane="0"/>
    <connection from="-1282418724#1" to="1282418724#1" fromLane="0" toLane="0"/>

    <connection from="-1282418724#2" to="-1282418723#0" fromLane="0" toLane="0"/>
    <connection from="-1282418724#2" to="-1282418724#1" fromLane="0" toLane="0"/>
    <connection from="-1282418724#2" to="1282418723#1" fromLane="0" toLane="0"/>
    <connection from="-1282418724#2" to="1282418724#2" fromLane="0" toLane="0"/>

    <connection from="-1282418725#0" to="-79264928#4" fromLane="0" toLane="0"/>
    <connection from="-1282418725#0" to="-1282418726#1" fromLane="0" toLane="0"/>
    <connection from="-1282418725#0" to="79264928#5" fromLane="0" toLane="0"/>
    <connection from="-1282418725#0" to="1282418725#0" fromLane="0" toLane="0"/>

    <connection from="-1282418725#1" to="-1282418725#0" fromLane="0" toLane="0"/>
    <connection from="-1282418725#1" to="1282418724#0" fromLane="0" toLane="0"/>
    <connection from="-1282418725#1" to="1282418725#1" fromLane="0" toLane="0"/>

    <connection from="-1282418726#0" to="1282418726#0" fromLane="0" toLane="0"/>

    <connection from="-1282418726#1" to="-1282418726#0" fromLane="0" toLane="0"/>
    <connection from="-1282418726#1" to="-975485881" fromLane="0" toLane="0"/>

    <connection from="-1282418727" to="1282418727" fromLane="0" toLane="0"/>

    <connection from="-1282689196" to="956216188#1" fromLane="0" toLane="0"/>
    <connection from="-1282689196" to="-956216188#0" fromLane="0" toLane="0"/>
    <connection from="-1282689196" to="1282689196" fromLane="0" toLane="0"/>

    <connection from="-1282689197" to="1282689198#1" fromLane="0" toLane="0"/>
    <connection from="-1282689197" to="-1282689198#0" fromLane="0" toLane="0"/>
    <connection from="-1282689197" to="1282689197" fromLane="0" toLane="0"/>

    <connection from="-1282689198#0" to="-217790286#1" fromLane="0" toLane="0"/>
    <connection from="-1282689198#0" to="217790286#2" fromLane="0" toLane="0"/>
    <connection from="-1282689198#0" to="1282689198#0" fromLane="0" toLane="0"/>

    <connection from="-1282689198#1" to="-1282689198#0" fromLane="0" toLane="0"/>
    <connection from="-1282689198#1" to="1282689197" fromLane="0" toLane="0"/>
    <connection from="-1282689198#1" to="1282689198#1" fromLane="0" toLane="0"/>

    <connection from="-1282689199" to="-217790284#0" fromLane="0" toLane="0"/>
    <connection from="-1282689199" to="217790284#1" fromLane="0" toLane="0"/>
    <connection from="-1282689199" to="1282689199" fromLane="0" toLane="0"/>

    <connection from="-1282689200" to="1282689200" fromLane="0" toLane="0"/>

    <connection from="-1282689201" to="1282689201" fromLane="0" toLane="0"/>

    <connection from="-1282689202" to="1282689202" fromLane="0" toLane="0"/>

    <connection from="-1282689204" to="1282689204" fromLane="0" toLane="0"/>

    <connection from="-1282746208" to="975485853" fromLane="0" toLane="0"/>
    <connection from="-1282746208" to="1282746208" fromLane="0" toLane="0"/>

    <connection from="-1288290783#0" to="-79264928#9" fromLane="0" toLane="0"/>

    <connection from="-1288290783#1" to="219426287#0" fromLane="0" toLane="0"/>
    <connection from="-1288290783#1" to="-1288290783#0" fromLane="0" toLane="0"/>

    <connection from="-1305541019" to="-1282746208" fromLane="0" toLane="0"/>
    <connection from="-1305541019" to="1282746209" fromLane="0" toLane="0"/>
    <connection from="-1305541019" to="1305541019" fromLane="0" toLane="0"/>

    <connection from="-1305541021#0" to="909278088" fromLane="0" toLane="0"/>
    <connection from="-1305541021#0" to="909278088" fromLane="0" toLane="1"/>
    <connection from="-1305541021#0" to="1305541021#0" fromLane="0" toLane="0"/>

    <connection from="-1305541021#1" to="-1305541021#0" fromLane="0" toLane="0"/>
    <connection from="-1305541021#1" to="1282418714" fromLane="0" toLane="0"/>

    <connection from="-1305541021#2" to="-1282689204" fromLane="0" toLane="0"/>
    <connection from="-1305541021#2" to="-1305541021#1" fromLane="0" toLane="0"/>

    <connection from="-1305541021#3" to="219919811" fromLane="0" toLane="0"/>
    <connection from="-1305541021#3" to="-1305541021#2" fromLane="0" toLane="0"/>
    <connection from="-1305541021#3" to="1305541021#3" fromLane="0" toLane="0"/>

    <connection from="-1316962759" to="1316962759" fromLane="0" toLane="0"/>

    <connection from="-1332865459#0" to="-701831726#3" fromLane="0" toLane="0"/>

    <connection from="-1332865459#1" to="689450388#3" fromLane="0" toLane="0"/>
    <connection from="-1332865459#1" to="-1332865459#0" fromLane="0" toLane="0"/>
    <connection from="-1332865459#1" to="-689450388#2" fromLane="0" toLane="0"/>

    <connection from="-1332865460#0" to="-1332865459#1" fromLane="0" toLane="0"/>

    <connection from="-1332865460#1" to="-1281967166" fromLane="0" toLane="0"/>
    <connection from="-1332865460#1" to="-1332865460#0" fromLane="0" toLane="0"/>
    <connection from="-1332865460#1" to="-219919815#1" fromLane="0" toLane="0"/>

    <connection from="-1337666146" to="-217790286#2" fromLane="0" toLane="0"/>
    <connection from="-1337666146" to="-217785655" fromLane="0" toLane="0"/>
    <connection from="-1337666146" to="1337666146" fromLane="0" toLane="0"/>

    <connection from="-1354886470" to="-217839260" fromLane="0" toLane="0"/>
    <connection from="-1354886470" to="-217839257" fromLane="0" toLane="0"/>
    <connection from="-1354886470" to="1354886470" fromLane="0" toLane="0"/>

    <connection from="-1354886471#0" to="-1354886470" fromLane="0" toLane="0"/>
    <connection from="-1354886471#0" to="-217839258" fromLane="0" toLane="0"/>
    <connection from="-1354886471#0" to="1354886471#0" fromLane="0" toLane="0"/>

    <connection from="-1354886471#1" to="-1354886471#0" fromLane="0" toLane="0"/>
    <connection from="-1354886471#1" to="-219920251" fromLane="0" toLane="0"/>

    <connection from="-136440667#0" to="-136440683#4" fromLane="0" toLane="0"/>
    <connection from="-136440667#0" to="136440695" fromLane="0" toLane="0"/>
    <connection from="-136440667#0" to="136440667#0" fromLane="0" toLane="0"/>

    <connection from="-136440667#1" to="208131991" fromLane="0" toLane="0"/>
    <connection from="-136440667#1" to="-136440667#0" fromLane="0" toLane="0"/>
    <connection from="-136440667#1" to="136440667#1" fromLane="0" toLane="0"/>

    <connection from="-136440667#2" to="-1070599958" fromLane="0" toLane="0"/>
    <connection from="-136440667#2" to="-136440667#1" fromLane="0" toLane="0"/>

    <connection from="-136440667#3" to="-1282418727" fromLane="0" toLane="0"/>
    <connection from="-136440667#3" to="-136440667#2" fromLane="0" toLane="0"/>

    <connection from="-136440667#4" to="-136440667#3" fromLane="0" toLane="0"/>
    <connection from="-136440667#4" to="1061416841" fromLane="0" toLane="0"/>

    <connection from="-136440667#5" to="-136440667#4" fromLane="0" toLane="0"/>
    <connection from="-136440667#5" to="-1354886471#1" fromLane="0" toLane="0"/>
    <connection from="-136440667#5" to="136440667#5" fromLane="0" toLane="0"/>

    <connection from="-136440667#6" to="219429186#0" fromLane="0" toLane="0"/>
    <connection from="-136440667#6" to="-136440667#5" fromLane="0" toLane="0"/>
    <connection from="-136440667#6" to="136440667#6" fromLane="0" toLane="0"/>

    <connection from="-136440667#7" to="1070599956" fromLane="0" toLane="0"/>
    <connection from="-136440667#7" to="-136440667#6" fromLane="0" toLane="0"/>

    <connection from="-136440667#8" to="-136440667#7" fromLane="0" toLane="0"/>
    <connection from="-136440667#8" to="1061416839" fromLane="0" toLane="0"/>

    <connection from="-136440667#9" to="-136440667#8" fromLane="0" toLane="0"/>
    <connection from="-136440667#9" to="1061416838" fromLane="0" toLane="0"/>

    <connection from="-136440683#0" to="-79264935#3" fromLane="0" toLane="0"/>
    <connection from="-136440683#0" to="928948412" fromLane="0" toLane="0"/>
    <connection from="-136440683#0" to="136440683#0" fromLane="0" toLane="0"/>

    <connection from="-136440683#1" to="-1061416827#0" fromLane="0" toLane="0"/>
    <connection from="-136440683#1" to="-136440683#0" fromLane="0" toLane="0"/>
    <connection from="-136440683#1" to="1061416827#1" fromLane="0" toLane="0"/>

    <connection from="-136440683#2" to="-136440683#1" fromLane="0" toLane="0"/>
    <connection from="-136440683#2" to="-217839254" fromLane="0" toLane="0"/>
    <connection from="-136440683#2" to="136440683#2" fromLane="0" toLane="0"/>

    <connection from="-136440683#3" to="1061416830" fromLane="0" toLane="0"/>
    <connection from="-136440683#3" to="-136440683#2" fromLane="0" toLane="0"/>

    <connection from="-136440683#4" to="-208131991" fromLane="0" toLane="0"/>
    <connection from="-136440683#4" to="-136440683#3" fromLane="0" toLane="0"/>
    <connection from="-136440683#4" to="136440683#4" fromLane="0" toLane="0"/>

    <connection from="-136440695" to="136440667#0" fromLane="0" toLane="0"/>
    <connection from="-136440695" to="-136440683#4" fromLane="0" toLane="0"/>
    <connection from="-136440695" to="136440695" fromLane="0" toLane="0"/>

    <connection from="-148730894" to="-1090274271" fromLane="0" toLane="0"/>

    <connection from="-195202615#0" to="354892201#1" fromLane="0" toLane="0"/>
    <connection from="-195202615#0" to="195202615#0" fromLane="0" toLane="0"/>

    <connection from="-195202615#1" to="-195202615#0" fromLane="0" toLane="0"/>
    <connection from="-195202615#1" to="-823506810#1" fromLane="0" toLane="0"/>
    <connection from="-195202615#1" to="195202615#1" fromLane="0" toLane="0"/>

    <connection from="-195202615#2" to="195203034#0" fromLane="0" toLane="0"/>
    <connection from="-195202615#2" to="-195202615#1" fromLane="0" toLane="0"/>
    <connection from="-195202615#2" to="-823506809" fromLane="0" toLane="0"/>
    <connection from="-195202615#2" to="195202615#2" fromLane="0" toLane="0"/>

    <connection from="-195202615#3" to="-195202615#2" fromLane="0" toLane="0"/>
    <connection from="-195202615#3" to="1061416857" fromLane="0" toLane="0"/>
    <connection from="-195202615#3" to="195202615#3" fromLane="0" toLane="0"/>

    <connection from="-195203034#0" to="-195202615#1" fromLane="0" toLane="0"/>
    <connection from="-195203034#0" to="-823506809" fromLane="0" toLane="0"/>
    <connection from="-195203034#0" to="195202615#2" fromLane="0" toLane="0"/>
    <connection from="-195203034#0" to="195203034#0" fromLane="0" toLane="0"/>

    <connection from="-195203034#1" to="-711957603#1" fromLane="0" toLane="0"/>
    <connection from="-195203034#1" to="-195203034#0" fromLane="0" toLane="0"/>
    <connection from="-195203034#1" to="195203034#1" fromLane="0" toLane="0"/>

    <connection from="-208131986#0" to="-928948412" fromLane="0" toLane="0"/>
    <connection from="-208131986#0" to="-561363079" fromLane="0" toLane="0"/>
    <connection from="-208131986#0" to="208131986#0" fromLane="0" toLane="0"/>
