<?xml version="1.0" encoding="UTF-8"?>

<!-- generated on 2025-04-03 15:48:34 by Eclipse SUMO sumo Version 1.22.0
-->

<sumoConfiguration xmlns:xsi="http://www.w3.org/2001/XMLSchema-instance" xsi:noNamespaceSchemaLocation="http://sumo.dlr.de/xsd/sumoConfiguration.xsd">

    <input>
        <net-file value="map.net.xml"/>
        <route-files value="cars.rou.xml"/>
    </input>

    <time>
        <step-length value="0.01"/>
    </time>

</sumoConfiguration>
