<?xml version="1.0" encoding="UTF-8"?>

<!-- generated on 2025-04-03 15:00:07 by Eclipse SUMO netconvert Version 1.22.0
<netconvertConfiguration xmlns:xsi="http://www.w3.org/2001/XMLSchema-instance" xsi:noNamespaceSchemaLocation="http://sumo.dlr.de/xsd/netconvertConfiguration.xsd">

    <input>
        <sumo-net-file value="map.net.xml"/>
    </input>

    <output>
        <plain-output-prefix value="map"/>
    </output>

    <processing>
        <geometry.min-radius.fix.railways value="false"/>
        <geometry.max-grade.fix value="false"/>
        <offset.disable-normalization value="true"/>
        <lefthand value="0"/>
    </processing>

    <junctions>
        <no-turnarounds value="true"/>
        <junctions.corner-detail value="5"/>
        <junctions.limit-turn-speed value="5.50"/>
        <rectangular-lane-cut value="0"/>
    </junctions>

    <pedestrian>
        <walkingareas value="0"/>
    </pedestrian>

</netconvertConfiguration>
-->

<nodes version="1.20" xmlns:xsi="http://www.w3.org/2001/XMLSchema-instance" xsi:noNamespaceSchemaLocation="http://sumo.dlr.de/xsd/nodes_file.xsd">
    <location netOffset="-652366.31,-5468513.80" convBoundary="0.00,0.00,3512.96,2614.23" origBoundary="-0.901047,49.349986,-0.853112,49.373630" projParameter="+proj=utm +zone=30 +ellps=WGS84 +datum=WGS84 +units=m +no_defs"/>

    <node id="10033260876" x="1301.91" y="2089.26" type="priority"/>
    <node id="10779441868" x="1463.22" y="1030.97" type="priority"/>
    <node id="10781255380" x="2789.68" y="889.76" type="priority"/>
    <node id="10799145650" x="1068.53" y="1227.83" type="priority"/>
    <node id="10799145655" x="1043.99" y="1180.12" type="priority"/>
    <node id="10799145660" x="1126.63" y="1244.47" type="priority"/>
    <node id="10799145664" x="1102.02" y="1225.52" type="right_before_left"/>
    <node id="10799145669" x="1292.53" y="1294.99" type="right_before_left"/>
    <node id="10836573555" x="1954.21" y="674.85" type="priority"/>
    <node id="10844325895" x="1802.36" y="2204.24" type="priority"/>
    <node id="11035330879" x="1714.90" y="1257.04" type="priority" fringe="inner">
        <param key="buffer_stop" value="true"/>
    </node>
    <node id="11453268693" x="1734.66" y="2251.21" type="dead_end"/>
    <node id="11453268695" x="1740.10" y="2240.68" type="dead_end"/>
    <node id="11453268696" x="1738.22" y="2236.58" type="priority"/>
    <node id="11453268701" x="1813.96" y="2212.21" type="dead_end"/>
    <node id="11453268706" x="1561.36" y="2323.03" type="dead_end"/>
    <node id="11453268708" x="1564.86" y="2330.21" type="dead_end"/>
    <node id="11453268709" x="1596.28" y="2272.56" type="priority"/>
    <node id="11453268710" x="1609.19" y="2277.68" type="priority"/>
    <node id="11453268714" x="1528.40" y="2304.01" type="dead_end"/>
    <node id="11453268716" x="1491.56" y="2339.30" type="priority"/>
    <node id="11843777063" x="1433.41" y="985.39" type="priority"/>
    <node id="11843863077" x="2354.44" y="791.40" type="priority"/>
    <node id="11896945011" x="1662.85" y="2145.05" type="priority"/>
    <node id="11896945013" x="1639.40" y="2137.18" type="priority"/>
    <node id="11896963052" x="2190.34" y="2050.27" type="priority"/>
    <node id="11896963053" x="1914.30" y="2170.78" type="priority"/>
    <node id="11896963060" x="2009.20" y="2117.90" type="right_before_left"/>
    <node id="11896963061" x="2010.52" y="2120.84" type="priority"/>
    <node id="11896963062" x="2013.40" y="2127.58" type="priority"/>
    <node id="11896963063" x="2011.65" y="2123.32" type="priority"/>
    <node id="11896963064" x="2113.17" y="2079.02" type="priority"/>
    <node id="11896963065" x="2112.05" y="2076.55" type="priority"/>
    <node id="11896963066" x="2110.72" y="2073.61" type="right_before_left"/>
    <node id="11896963067" x="2108.18" y="2067.98" type="priority"/>
    <node id="11896963068" x="2115.07" y="2083.19" type="priority"/>
    <node id="11896963091" x="2456.80" y="1947.42" type="priority"/>
    <node id="11896963093" x="2452.14" y="1936.65" type="right_before_left"/>
    <node id="11896963116" x="1682.20" y="2122.26" type="priority"/>
    <node id="11896963125" x="1683.88" y="2092.02" type="priority"/>
    <node id="11896963147" x="2579.18" y="1768.46" type="priority"/>
    <node id="11896963148" x="2595.05" y="1811.92" type="priority"/>
    <node id="11896963579" x="2493.71" y="1931.12" type="priority"/>
    <node id="11896963645" x="1430.86" y="2150.90" type="priority"/>
    <node id="11896963652" x="1387.20" y="2171.41" type="priority"/>
    <node id="11896963670" x="1247.25" y="1205.15" type="priority"/>
    <node id="11896963692" x="1410.36" y="1148.47" type="priority"/>
    <node id="11896963694" x="1437.70" y="1191.79" type="priority"/>
    <node id="11896963698" x="1188.87" y="1331.87" type="priority"/>
    <node id="11896963699" x="1195.06" y="1379.02" type="priority"/>
    <node id="11896963717" x="2187.68" y="567.65" type="priority"/>
    <node id="11896963723" x="2095.91" y="546.78" type="priority"/>
    <node id="11896963742" x="2290.82" y="2007.97" type="priority"/>
    <node id="11896963743" x="2278.38" y="1986.00" type="right_before_left"/>
    <node id="11896963834" x="1568.37" y="1375.90" type="priority" fringe="inner">
        <param key="buffer_stop" value="true"/>
    </node>
    <node id="11896963914" x="2560.39" y="1282.05" type="priority"/>
    <node id="11896963922" x="767.36" y="2230.00" type="priority"/>
    <node id="11896963926" x="1463.42" y="2049.84" type="priority"/>
    <node id="11896963931" x="1506.04" y="2032.12" type="priority"/>
    <node id="11896963932" x="1443.08" y="2209.22" type="priority"/>
    <node id="11896963933" x="1420.55" y="2215.62" type="priority"/>
    <node id="11896964459" x="1488.79" y="1923.02" type="priority"/>
    <node id="11896964573" x="1606.53" y="938.89" type="right_before_left"/>
    <node id="11896964575" x="1545.66" y="926.94" type="priority"/>
    <node id="11896964577" x="1620.79" y="1001.21" type="priority"/>
    <node id="11896964606" x="1875.13" y="702.59" type="right_before_left"/>
    <node id="11896964607" x="1893.33" y="701.37" type="priority"/>
    <node id="11896964657" x="1421.30" y="1720.09" type="priority"/>
    <node id="11896964666" x="1446.71" y="1835.86" type="priority"/>
    <node id="11900541997" x="981.15" y="1188.31" type="priority"/>
    <node id="11900542003" x="1013.96" y="1196.62" type="priority"/>
    <node id="11900780309" x="1377.86" y="942.02" type="priority"/>
    <node id="11900795536" x="1534.18" y="1575.33" type="priority"/>
    <node id="11900795537" x="1409.00" y="1792.33" type="priority"/>
    <node id="11900795539" x="1367.32" y="1800.40" type="priority"/>
    <node id="11900795540" x="1428.76" y="1902.77" type="right_before_left"/>
    <node id="11900795544" x="1403.99" y="1791.90" type="right_before_left"/>
    <node id="11900795554" x="1529.91" y="1572.64" type="right_before_left"/>
    <node id="11900795571" x="1532.37" y="1190.95" type="priority"/>
    <node id="11900795578" x="1567.30" y="1285.50" type="right_before_left"/>
    <node id="11900795581" x="1583.69" y="1281.29" type="priority"/>
    <node id="11900795590" x="2086.22" y="1207.96" type="priority"/>
    <node id="11900795597" x="2110.69" y="1170.68" type="priority"/>
    <node id="11902704847" x="1484.34" y="1973.80" type="priority"/>
    <node id="11902704850" x="1449.66" y="1979.14" type="priority"/>
    <node id="11902892012" x="1188.40" y="1432.28" type="priority" fringe="inner">
        <param key="buffer_stop" value="true"/>
    </node>
    <node id="11902892013" x="1221.33" y="1446.52" type="priority"/>
    <node id="11902892014" x="1206.64" y="1452.90" type="right_before_left"/>
    <node id="11902892016" x="1193.16" y="1460.41" type="right_before_left"/>
    <node id="11902892019" x="1399.43" y="1110.84" type="priority"/>
    <node id="11902892025" x="1429.30" y="1117.65" type="priority"/>
    <node id="11902892048" x="1315.73" y="1284.07" type="priority"/>
    <node id="11902892051" x="1152.69" y="1235.97" type="priority"/>
    <node id="11902892053" x="1201.03" y="1268.71" type="priority"/>
    <node id="11902892054" x="1168.02" y="1281.78" type="priority"/>
    <node id="11902892128" x="1423.69" y="897.28" type="priority"/>
    <node id="11902892133" x="1466.10" y="933.32" type="priority"/>
    <node id="11903382501" x="1444.91" y="985.78" type="priority"/>
    <node id="11947301897" x="1434.14" y="1919.69" type="priority"/>
    <node id="11947301902" x="1451.84" y="2016.06" type="priority"/>
    <node id="11947301907" x="1506.30" y="2190.15" type="priority"/>
    <node id="11947301914" x="1506.23" y="2192.90" type="priority"/>
    <node id="11987367713" x="1810.82" y="2205.95" type="dead_end"/>
    <node id="11987367714" x="1806.05" y="2209.19" type="dead_end"/>
    <node id="11987367715" x="1805.81" y="2201.79" type="priority"/>
    <node id="11987367736" x="1687.34" y="2255.79" type="priority"/>
    <node id="11987367737" x="1637.59" y="2279.04" type="priority"/>
    <node id="11987367739" x="1620.09" y="2285.12" type="dead_end"/>
    <node id="12110304649" x="2537.77" y="1267.09" type="priority"/>
    <node id="12188531063" x="2026.85" y="1154.52" type="priority"/>
    <node id="12330901935" x="2159.09" y="2045.89" type="priority"/>
    <node id="12330901936" x="2172.95" y="2039.82" type="priority"/>
    <node id="1264878501" x="1449.98" y="2242.34" type="priority"/>
    <node id="1264878510" x="0.00" y="2582.68" type="priority"/>
    <node id="1264878518" x="1482.94" y="2247.55" type="priority"/>
    <node id="1264878543" x="906.07" y="2168.67" type="priority"/>
    <node id="1301140589" x="1438.53" y="1037.29" type="priority"/>
    <node id="1408819922" x="189.59" y="2305.74" type="priority"/>
    <node id="1416126511" x="1519.27" y="2245.34" type="priority"/>
    <node id="1416126514" x="1399.86" y="2245.96" type="priority"/>
    <node id="1416126535" x="1489.98" y="2352.82" type="priority"/>
    <node id="1496591559" x="1629.75" y="1241.61" type="priority"/>
    <node id="1617996008" x="2804.84" y="884.10" type="right_before_left"/>
    <node id="1617996018" x="2652.82" y="950.25" type="priority"/>
    <node id="1617996025" x="2231.47" y="1172.53" type="priority"/>
    <node id="1617996035" x="1813.35" y="1202.52" type="priority"/>
    <node id="1617996044" x="1535.87" y="1585.31" type="right_before_left"/>
    <node id="1617996056" x="1558.99" y="1992.57" type="right_before_left"/>
    <node id="1617996062" x="1638.26" y="2133.93" type="priority"/>
    <node id="1864140201" x="1517.54" y="2225.27" type="priority"/>
    <node id="1864140207" x="1513.97" y="2197.96" type="priority"/>
    <node id="1864144456" x="1579.35" y="1284.62" type="priority"/>
    <node id="1864144457" x="1433.23" y="1901.49" type="priority"/>
    <node id="1864144460" x="1439.01" y="1033.09" type="priority"/>
    <node id="1864144461" x="1480.68" y="1110.76" type="priority"/>
    <node id="1864144462" x="1443.12" y="1046.50" type="priority"/>
    <node id="2056751069" x="2755.79" y="1745.24" type="priority"/>
    <node id="2056759274" x="3512.96" y="1503.14" type="priority"/>
    <node id="2056759871" x="2796.66" y="1729.10" type="right_before_left"/>
    <node id="2056759872" x="2819.17" y="1772.20" type="right_before_left"/>
    <node id="2056759873" x="2844.93" y="1770.86" type="priority"/>
    <node id="2184534646" x="2227.35" y="1197.45" type="priority"/>
    <node id="2270917451" x="1045.83" y="1250.13" type="priority"/>
    <node id="2270956615" x="1202.67" y="1261.71" type="right_before_left"/>
    <node id="2270956634" x="1038.99" y="1255.07" type="priority"/>
    <node id="2270956636" x="1243.44" y="1128.47" type="priority"/>
    <node id="2270956685" x="1471.62" y="1093.99" type="priority"/>
    <node id="2270956746" x="991.27" y="1211.06" type="priority"/>
    <node id="2270956793" x="1456.40" y="2017.34" type="priority"/>
    <node id="2270956817" x="1222.31" y="1316.42" type="right_before_left"/>
    <node id="2270956843" x="1308.99" y="1216.93" type="right_before_left"/>
    <node id="2270956845" x="1179.46" y="1333.91" type="priority"/>
    <node id="2271411328" x="1674.23" y="1474.02" type="priority"/>
    <node id="2271411372" x="2300.87" y="978.69" type="priority"/>
    <node id="2271411399" x="1842.62" y="1710.05" type="right_before_left"/>
    <node id="2271411469" x="1807.04" y="1457.98" type="priority"/>
    <node id="2271411480" x="2200.74" y="1671.18" type="priority"/>
    <node id="2271411497" x="1683.16" y="1313.21" type="priority"/>
    <node id="2271411525" x="1572.58" y="2002.90" type="priority"/>
    <node id="2271411548" x="1811.27" y="1342.08" type="priority"/>
    <node id="2271470725" x="1928.11" y="42.93" type="priority"/>
    <node id="2271471072" x="1963.25" y="666.69" type="priority"/>
    <node id="2285080341" x="1541.61" y="1205.42" type="priority"/>
    <node id="2285877747" x="1437.82" y="1918.72" type="priority"/>
    <node id="2285877770" x="1585.72" y="2288.48" type="dead_end"/>
    <node id="2285877785" x="1522.95" y="2303.03" type="priority"/>
    <node id="2285877802" x="1508.27" y="2346.76" type="dead_end"/>
    <node id="2285898457" x="1661.01" y="995.13" type="priority"/>
    <node id="2285898462" x="1678.67" y="1060.86" type="priority"/>
    <node id="2285898473" x="1678.69" y="1082.38" type="right_before_left"/>
    <node id="2285898483" x="1734.78" y="1211.24" type="priority"/>
    <node id="2285898484" x="2535.09" y="1296.72" type="right_before_left"/>
    <node id="2285898488" x="2488.98" y="1301.04" type="right_before_left"/>
    <node id="2290492074" x="1853.14" y="700.72" type="priority"/>
    <node id="2290492087" x="1879.55" y="738.13" type="priority"/>
    <node id="2290492089" x="1845.90" y="751.98" type="priority"/>
    <node id="2290492140" x="2566.18" y="1822.76" type="priority"/>
    <node id="2290492151" x="2582.01" y="1876.41" type="right_before_left"/>
    <node id="2290492155" x="2119.54" y="1995.37" type="priority"/>
    <node id="2290492157" x="2184.07" y="2034.53" type="priority"/>
    <node id="2290492160" x="2006.65" y="2112.26" type="priority"/>
    <node id="2290492162" x="1744.19" y="2110.09" type="priority"/>
    <node id="2290492166" x="1907.79" y="2154.77" type="priority"/>
    <node id="2290492171" x="1793.31" y="2210.66" type="priority"/>
    <node id="2290492175" x="1688.96" y="2259.34" type="priority"/>
    <node id="2290500813" x="1754.21" y="1338.24" type="priority"/>
    <node id="2290500814" x="1539.18" y="1852.47" type="priority"/>
    <node id="2290500815" x="1510.49" y="2188.57" type="priority"/>
    <node id="2290500816" x="1465.81" y="2205.47" type="priority"/>
    <node id="253139481" x="1449.98" y="1049.49" type="priority"/>
    <node id="253139482" x="1827.10" y="978.50" type="priority"/>
    <node id="2702108330" x="2760.12" y="1741.27" type="priority"/>
    <node id="2702108337" x="2767.68" y="1680.97" type="priority"/>
    <node id="2702108338" x="2730.36" y="1759.45" type="priority"/>
    <node id="2702108342" x="2712.46" y="1720.59" type="priority"/>
    <node id="2702108351" x="2741.12" y="1710.87" type="dead_end"/>
    <node id="2702108370" x="2769.37" y="1691.60" type="priority"/>
    <node id="2702108371" x="2772.03" y="1743.98" type="right_before_left"/>
    <node id="2702109775" x="2741.85" y="1663.71" type="dead_end"/>
    <node id="2702109784" x="2747.17" y="1649.72" type="dead_end"/>
    <node id="2702111208" x="2752.54" y="1649.12" type="priority"/>
    <node id="2702111218" x="2744.45" y="1647.24" type="priority"/>
    <node id="2702111231" x="2726.28" y="1636.63" type="right_before_left"/>
    <node id="2702111261" x="2704.80" y="1631.59" type="right_before_left"/>
    <node id="2702111278" x="2687.44" y="1628.79" type="right_before_left"/>
    <node id="2702111286" x="2668.57" y="1607.00" type="right_before_left"/>
    <node id="2702112809" x="2749.57" y="1619.28" type="priority"/>
    <node id="2702112825" x="2773.84" y="1679.50" type="right_before_left"/>
    <node id="2702112836" x="2791.93" y="1584.69" type="priority"/>
    <node id="270473145" x="1464.41" y="1038.23" type="priority"/>
    <node id="270473146" x="1437.46" y="971.26" type="priority"/>
    <node id="270473151" x="1406.96" y="770.85" type="priority"/>
    <node id="270473152" x="1393.66" y="647.66" type="priority"/>
    <node id="2792726057" x="1586.94" y="2262.45" type="right_before_left"/>
    <node id="2792726061" x="1585.97" y="2158.52" type="priority"/>
    <node id="2792726073" x="1571.70" y="2113.85" type="priority"/>
    <node id="2792726075" x="1578.92" y="2225.81" type="priority"/>
    <node id="2792726082" x="1551.38" y="2187.93" type="priority"/>
    <node id="2792735077" x="1484.08" y="2355.74" type="priority"/>
    <node id="3338578909" x="1812.74" y="2081.76" type="priority"/>
    <node id="3621800351" x="2280.10" y="1876.17" type="right_before_left"/>
    <node id="3621800381" x="2585.15" y="940.14" type="right_before_left"/>
    <node id="3621800384" x="2233.29" y="1867.78" type="dead_end"/>
    <node id="3621800996" x="2215.75" y="1850.97" type="priority"/>
    <node id="3621800999" x="2310.31" y="1937.61" type="priority"/>
    <node id="392052714" x="2579.62" y="261.36" type="priority"/>
    <node id="392053658" x="1208.90" y="0.00" type="priority"/>
    <node id="392053716" x="1111.27" y="1182.29" type="priority"/>
    <node id="392053736" x="1130.00" y="1369.28" type="priority"/>
    <node id="392053737" x="1181.29" y="1443.14" type="priority"/>
    <node id="4081150697" x="2883.93" y="880.87" type="priority"/>
    <node id="4081150703" x="2784.14" y="975.96" type="priority"/>
    <node id="4081150705" x="2775.21" y="981.54" type="right_before_left"/>
    <node id="4081150736" x="2675.68" y="1247.89" type="priority"/>
    <node id="4081150762" x="2742.06" y="1669.82" type="dead_end"/>
    <node id="4081150763" x="2741.68" y="1686.23" type="dead_end"/>
    <node id="4081154101" x="1572.84" y="2273.38" type="priority"/>
    <node id="410259285" x="2256.34" y="1193.56" type="priority"/>
    <node id="410259288" x="2458.03" y="1297.28" type="priority"/>
    <node id="410259300" x="2746.95" y="1638.48" type="priority"/>
    <node id="456692851" x="1588.75" y="2283.89" type="priority"/>
    <node id="456692853" x="1639.57" y="2283.00" type="priority"/>
    <node id="456694620" x="2269.32" y="1987.04" type="priority"/>
    <node id="456701053" x="225.99" y="612.87" type="priority"/>
    <node id="4836957903" x="1511.46" y="2190.93" type="priority"/>
    <node id="4903375682" x="2330.26" y="1928.09" type="priority"/>
    <node id="4903375695" x="2181.51" y="2029.29" type="right_before_left"/>
    <node id="4903375697" x="2166.49" y="2042.53" type="priority"/>
    <node id="5292338212" x="1551.83" y="2246.13" type="priority"/>
    <node id="5413111067" x="1812.12" y="762.13" type="priority"/>
    <node id="6467837359" x="1909.99" y="2159.97" type="right_before_left"/>
    <node id="6467837362" x="1812.95" y="2203.94" type="right_before_left"/>
    <node id="6467837365" x="2306.94" y="1931.87" type="right_before_left"/>
    <node id="6490074418" x="2879.93" y="880.69" type="priority"/>
    <node id="6490074448" x="2625.70" y="947.26" type="right_before_left"/>
    <node id="6490074449" x="2618.95" y="946.51" type="right_before_left"/>
    <node id="6490074457" x="2602.39" y="1032.15" type="right_before_left"/>
    <node id="6490074476" x="2557.23" y="1247.23" type="right_before_left"/>
    <node id="6694286436" x="2272.21" y="1978.90" type="priority"/>
    <node id="6694286447" x="2838.13" y="1712.55" type="right_before_left"/>
    <node id="6694286452" x="2793.56" y="1557.35" type="priority"/>
    <node id="7688263796" x="2741.48" y="1694.94" type="priority"/>
    <node id="7688263805" x="2778.92" y="1700.27" type="right_before_left"/>
    <node id="7688263812" x="2729.25" y="1711.58" type="right_before_left"/>
    <node id="7994720827" x="1326.00" y="1254.68" type="priority" fringe="inner">
        <param key="buffer_stop" value="true"/>
    </node>
    <node id="8849719765" x="1443.15" y="1943.17" type="priority"/>
    <node id="9027116480" x="1007.04" y="805.36" type="priority"/>
    <node id="9027116490" x="1243.45" y="872.76" type="priority"/>
    <node id="9027116498" x="1426.57" y="987.79" type="priority"/>
    <node id="9027127019" x="1541.49" y="1588.71" type="priority"/>
    <node id="9027127020" x="1525.66" y="1606.85" type="priority"/>
    <node id="9027127021" x="1463.46" y="1791.78" type="priority"/>
    <node id="9027127073" x="1260.69" y="1238.04" type="priority"/>
    <node id="9027127075" x="1184.50" y="1223.95" type="priority"/>
    <node id="9095752325" x="2573.23" y="1842.48" type="priority"/>
    <node id="9099003870" x="366.95" y="33.87" type="priority"/>
    <node id="921210733" x="1572.30" y="1285.53" type="priority"/>
    <node id="921210749" x="1484.37" y="1028.85" type="priority"/>
    <node id="921210752" x="1531.42" y="1579.94" type="priority"/>
    <node id="921210796" x="2063.17" y="1034.46" type="priority"/>
    <node id="921210801" x="1843.58" y="953.45" type="priority"/>
    <node id="921828539" x="2754.49" y="1652.33" type="priority"/>
    <node id="925665085" x="801.88" y="1515.52" type="priority"/>
    <node id="925665090" x="1530.35" y="2220.39" type="priority"/>
    <node id="925665092" x="1424.56" y="921.31" type="priority"/>
    <node id="925665113" x="1530.84" y="2203.07" type="priority"/>
    <node id="925665122" x="1620.77" y="2288.50" type="priority"/>
    <node id="925665123" x="1440.81" y="1029.26" type="priority"/>
    <node id="925665156" x="1076.27" y="1219.58" type="priority"/>
    <node id="925766647" x="1460.05" y="1063.72" type="priority"/>
    <node id="925766757" x="1421.81" y="1051.62" type="priority"/>
    <node id="925766832" x="1457.45" y="1025.09" type="priority"/>
    <node id="925766888" x="2488.17" y="1285.82" type="priority"/>
    <node id="925766974" x="1460.84" y="1045.65" type="priority"/>
    <node id="925767091" x="2550.92" y="1265.32" type="priority"/>
    <node id="925767122" x="2064.24" y="689.14" type="priority"/>
    <node id="925767160" x="1901.36" y="842.92" type="priority"/>
    <node id="9285595541" x="943.67" y="578.91" type="priority"/>
    <node id="9405922315" x="626.50" y="2613.32" type="priority"/>
    <node id="9405993310" x="1603.19" y="1981.51" type="priority"/>
    <node id="9751964915" x="2037.58" y="1077.96" type="priority"/>
    <node id="9751975317" x="2043.98" y="1030.62" type="priority"/>
    <node id="9751975330" x="2098.36" y="1125.64" type="priority"/>
    <node id="9751975331" x="2102.87" y="1053.90" type="priority"/>
    <node id="9751975352" x="899.14" y="1643.19" type="priority"/>
    <node id="9751975363" x="1761.18" y="1051.32" type="priority"/>
    <node id="9751975364" x="1768.92" y="987.41" type="priority"/>
    <node id="9751975372" x="1719.47" y="1304.35" type="priority"/>
    <node id="9751975379" x="1717.54" y="1213.44" type="priority"/>
    <node id="9751975380" x="1710.43" y="1215.28" type="priority"/>
    <node id="9751975388" x="2050.11" y="1314.44" type="priority"/>
    <node id="9751975392" x="2060.45" y="1203.76" type="priority"/>
    <node id="9751975537" x="2791.86" y="1576.70" type="right_before_left"/>
    <node id="9753034347" x="2294.12" y="1992.72" type="priority"/>
    <node id="9753034356" x="2516.01" y="1921.16" type="priority"/>
    <node id="9753034360" x="2588.92" y="1896.12" type="priority"/>
    <node id="9754475645" x="2028.24" y="821.45" type="priority"/>
    <node id="9754475680" x="1585.96" y="1065.15" type="priority"/>
    <node id="9754497332" x="1200.08" y="2333.22" type="priority"/>
    <node id="9754497349" x="1256.23" y="2470.48" type="priority"/>
    <node id="9754497601" x="1501.70" y="2303.04" type="priority"/>
    <node id="9754497603" x="1520.30" y="2258.29" type="priority"/>
    <node id="9754497612" x="1632.34" y="2275.25" type="priority"/>
    <node id="9754497653" x="2741.58" y="1755.11" type="priority"/>
    <node id="9754497680" x="2254.26" y="1884.33" type="priority"/>
    <node id="9825138853" x="1699.02" y="1141.11" type="priority"/>
    <node id="9825138863" x="1729.23" y="1211.15" type="priority"/>
    <node id="9825138879" x="1688.13" y="1117.53" type="priority"/>
    <node id="9825138880" x="1741.97" y="1096.94" type="priority"/>
    <node id="9825138885" x="1692.08" y="1072.12" type="priority"/>
    <node id="9825138887" x="2136.98" y="1206.43" type="priority"/>
    <node id="9825138888" x="2138.13" y="1144.24" type="priority"/>
</nodes>
