<?xml version="1.0" encoding="UTF-8"?>

<!-- generated on 2025-04-03 15:00:07 by Eclipse SUMO netconvert Version 1.22.0
<netconvertConfiguration xmlns:xsi="http://www.w3.org/2001/XMLSchema-instance" xsi:noNamespaceSchemaLocation="http://sumo.dlr.de/xsd/netconvertConfiguration.xsd">

    <input>
        <sumo-net-file value="map.net.xml"/>
    </input>

    <output>
        <plain-output-prefix value="map"/>
    </output>

    <processing>
        <geometry.min-radius.fix.railways value="false"/>
        <geometry.max-grade.fix value="false"/>
        <offset.disable-normalization value="true"/>
        <lefthand value="0"/>
    </processing>

    <junctions>
        <no-turnarounds value="true"/>
        <junctions.corner-detail value="5"/>
        <junctions.limit-turn-speed value="5.50"/>
        <rectangular-lane-cut value="0"/>
    </junctions>

    <pedestrian>
        <walkingareas value="0"/>
    </pedestrian>

</netconvertConfiguration>
-->

<edges version="1.20" xmlns:xsi="http://www.w3.org/2001/XMLSchema-instance" xsi:noNamespaceSchemaLocation="http://sumo.dlr.de/xsd/edges_file.xsd">
    <location netOffset="-652366.31,-5468513.80" convBoundary="0.00,0.00,3512.96,2614.23" origBoundary="-0.901047,49.349986,-0.853112,49.373630" projParameter="+proj=utm +zone=30 +ellps=WGS84 +datum=WGS84 +units=m +no_defs"/>

    <edge id="-1006435309" from="9285595541" to="9027116480" priority="1" type="highway.track" numLanes="1" speed="5.56" shape="943.67,578.91 1006.15,786.70 1005.18,799.62 1007.04,805.36" allow="pedestrian motorcycle moped bicycle"/>
    <edge id="-1009365871#0" from="7688263796" to="3621800351" priority="1" type="highway.path" numLanes="1" speed="5.56" shape="2741.48,1694.94 2719.85,1694.12 2707.52,1695.92 2702.88,1700.93 2697.75,1710.22 2686.14,1714.55 2522.38,1778.42 2485.62,1793.12 2345.10,1852.41 2280.10,1876.17" width="2.00" allow="pedestrian bicycle"/>
    <edge id="-1009365871#1" from="2702108337" to="7688263796" priority="1" type="highway.path" numLanes="1" speed="5.56" shape="2767.68,1680.97 2761.30,1682.28 2754.77,1685.79 2751.00,1691.51 2748.68,1694.26 2741.48,1694.94" width="2.00" allow="pedestrian bicycle"/>
    <edge id="-1009365872" from="2702108337" to="2702108370" priority="3" type="highway.residential" numLanes="1" speed="13.89" shape="2767.68,1680.97 2768.77,1686.82 2769.37,1691.60" disallow="tram rail_urban rail rail_electric rail_fast ship container cable_car subway aircraft wheelchair scooter drone"/>
    <edge id="-1009365873" from="410259300" to="2702111208" priority="3" type="highway.residential" numLanes="1" speed="13.89" disallow="tram rail_urban rail rail_electric rail_fast ship container cable_car subway aircraft wheelchair scooter drone"/>
    <edge id="-1009365874" from="2285898484" to="2702111286" priority="1" type="highway.path" numLanes="1" speed="5.56" shape="2535.09,1296.72 2539.73,1307.67 2543.34,1316.01 2547.90,1325.00 2553.83,1335.34 2556.61,1341.48 2564.34,1363.23 2573.92,1386.22 2582.04,1405.32 2590.51,1423.43 2607.50,1463.16 2630.77,1522.10 2638.32,1536.86 2649.04,1561.87 2650.92,1568.19 2655.58,1583.58 2658.74,1590.70 2661.44,1595.61 2668.57,1607.00" width="0.50" allow="pedestrian bicycle"/>
    <edge id="-1009365875#0" from="6467837365" to="3621800999" priority="1" type="highway.path" numLanes="1" speed="5.56" width="0.50" allow="pedestrian bicycle"/>
    <edge id="-1009365875#1" from="3621800351" to="6467837365" priority="1" type="highway.path" numLanes="1" speed="5.56" shape="2280.10,1876.17 2286.83,1887.00 2295.04,1910.34 2301.06,1924.71 2306.94,1931.87" width="0.50" allow="pedestrian bicycle"/>
    <edge id="-1013458987" from="3338578909" to="2290492162" priority="3" type="highway.residential" numLanes="1" speed="13.89" shape="1812.74,2081.76 1808.78,2085.23 1802.18,2087.67 1782.27,2094.90 1744.19,2110.09" disallow="tram rail_urban rail rail_electric rail_fast ship container cable_car subway aircraft wheelchair scooter drone"/>
    <edge id="-1019042521" from="392053658" to="270473152" priority="11" type="highway.secondary" numLanes="1" speed="27.78" shape="1208.90,0.00 1221.61,33.60 1234.66,71.99 1247.44,108.04 1255.21,133.44 1260.20,154.57 1277.42,259.04 1280.45,283.05 1288.86,362.18 1293.72,403.33 1303.78,470.47 1310.27,491.41 1353.28,580.69 1367.50,604.95 1389.89,638.76 1393.66,647.66" disallow="tram rail_urban rail rail_electric rail_fast ship container cable_car subway aircraft wheelchair scooter drone">
        <param key="ref" value="D 517"/>
    </edge>
    <edge id="-1061416827#0" from="9751975317" to="9751964915" priority="1" type="highway.service" numLanes="1" speed="5.56" allow="pedestrian delivery bicycle"/>
    <edge id="-1061416827#1" from="9754475645" to="9751975317" priority="1" type="highway.service" numLanes="1" speed="5.56" shape="2028.24,821.45 2039.45,848.96 2041.60,859.04 2040.87,871.45 2038.74,881.02 2033.89,897.59 2029.30,936.14 2029.72,945.10 2034.04,954.64 2038.90,961.97 2039.92,967.24 2043.98,1030.62" allow="pedestrian delivery bicycle"/>
    <edge id="-1061416830" from="9751975330" to="9751975331" priority="1" type="highway.service" numLanes="1" speed="5.56" allow="pedestrian delivery bicycle"/>
    <edge id="-1061416835" from="9751975352" to="925665085" priority="1" type="highway.track" numLanes="1" speed="5.56" shape="899.14,1643.19 847.24,1568.57 801.88,1515.52" allow="pedestrian motorcycle moped bicycle"/>
    <edge id="-1061416837" from="9751975363" to="9751975364" priority="1" type="highway.service" numLanes="1" speed="5.56" allow="pedestrian delivery bicycle"/>
    <edge id="-1061416838" from="11035330879" to="9751975380" priority="1" type="highway.service" numLanes="1" speed="5.56" shape="1714.90,1257.04 1713.91,1238.50 1713.71,1228.54 1712.05,1219.90 1710.43,1215.28" allow="pedestrian delivery bicycle"/>
    <edge id="-1061416839" from="9751975372" to="9751975379" priority="1" type="highway.service" numLanes="1" speed="5.56" shape="1719.47,1304.35 1713.23,1301.06 1713.05,1296.98 1713.97,1288.46 1715.97,1283.36 1720.00,1278.71 1722.47,1273.63 1722.80,1265.58 1721.77,1253.79 1719.57,1238.27 1718.20,1217.93 1717.54,1213.44" allow="pedestrian delivery bicycle"/>
    <edge id="-1061416841" from="9751975388" to="9751975392" priority="1" type="highway.service" numLanes="1" speed="5.56" shape="2050.11,1314.44 2051.39,1297.08 2052.62,1277.39 2055.86,1238.52 2058.73,1216.34 2060.45,1203.76" allow="pedestrian delivery bicycle"/>
    <edge id="-1061416854#0" from="2702112825" to="2702108337" priority="1" type="highway.path" numLanes="1" speed="5.56" width="2.00" allow="pedestrian bicycle"/>
    <edge id="-1061416854#1" from="2702112836" to="2702112825" priority="1" type="highway.path" numLanes="1" speed="5.56" shape="2791.93,1584.69 2794.44,1591.96 2796.71,1598.06 2798.55,1605.67 2799.23,1613.64 2799.77,1621.61 2799.21,1627.74 2797.73,1634.88 2795.32,1638.01 2784.95,1654.07 2773.84,1679.50" width="2.00" allow="pedestrian bicycle"/>
    <edge id="-1061416857" from="9751975537" to="6694286447" priority="1" type="highway.path" numLanes="1" speed="5.56" shape="2791.86,1576.70 2803.37,1596.85 2808.37,1609.58 2824.93,1638.12 2842.97,1665.03 2854.58,1680.94 2853.07,1689.84 2848.26,1701.18 2838.13,1712.55" width="2.00" allow="pedestrian bicycle"/>
    <edge id="-1061416858#0" from="9751975537" to="2702112836" priority="1" type="highway.path" numLanes="1" speed="5.56" width="2.00" allow="pedestrian bicycle"/>
    <edge id="-1061416858#1" from="6694286452" to="9751975537" priority="1" type="highway.path" numLanes="1" speed="5.56" shape="2793.56,1557.35 2791.43,1571.30 2791.86,1576.70" width="2.00" allow="pedestrian bicycle"/>
    <edge id="-1061537596" from="6490074449" to="3621800381" priority="1" type="highway.path" numLanes="1" speed="5.56" shape="2618.95,946.51 2610.91,945.63 2585.15,940.14" width="2.00" allow="pedestrian bicycle"/>
    <edge id="-1061721284" from="9754475680" to="1864144461" priority="1" type="highway.service" numLanes="1" speed="5.56" shape="1585.96,1065.15 1584.30,1079.39 1581.15,1087.27 1577.73,1094.56 1571.63,1100.32 1564.77,1108.48 1558.77,1110.35 1549.84,1112.72 1540.23,1114.79 1528.78,1116.50 1518.75,1116.22 1503.45,1112.88 1492.99,1110.35 1480.68,1110.76" allow="pedestrian delivery bicycle"/>
    <edge id="-1061721289" from="9754497332" to="9754497349" priority="1" type="highway.service" numLanes="1" speed="5.56" shape="1200.08,2333.22 1205.11,2337.97 1205.51,2341.38 1204.20,2344.36 1194.52,2352.78 1192.53,2356.02 1193.99,2359.42 1198.52,2361.09 1204.11,2361.70 1212.77,2362.08 1216.26,2364.17 1217.56,2366.73 1217.89,2370.63 1214.34,2373.89 1209.21,2377.53 1208.36,2381.97 1209.46,2386.28 1223.93,2410.49 1252.63,2464.14 1256.23,2470.48" allow="pedestrian delivery bicycle"/>
    <edge id="-1061721329#0" from="9754497601" to="9754497603" priority="1" type="highway.service" numLanes="1" speed="5.56" shape="1501.70,2303.04 1498.50,2260.81 1514.55,2259.13 1520.30,2258.29" allow="pedestrian delivery bicycle"/>
    <edge id="-1061721329#1" from="11453268716" to="9754497601" priority="1" type="highway.service" numLanes="1" speed="5.56" shape="1491.56,2339.30 1500.17,2326.14 1501.70,2303.04" allow="pedestrian delivery bicycle"/>
    <edge id="-1061721330#0" from="11987367737" to="456692853" priority="1" type="highway.service" numLanes="1" speed="5.56" allow="pedestrian delivery bicycle"/>
    <edge id="-1061721330#1" from="9754497612" to="11987367737" priority="1" type="highway.service" numLanes="1" speed="5.56" allow="pedestrian delivery bicycle"/>
    <edge id="-1061721332" from="2792726075" to="2792726082" priority="1" type="highway.service" numLanes="1" speed="5.56" allow="pedestrian delivery bicycle"/>
    <edge id="-1070599956" from="9825138853" to="9825138863" priority="1" type="highway.service" numLanes="1" speed="5.56" shape="1699.02,1141.11 1698.51,1145.28 1698.34,1151.29 1699.73,1157.26 1705.24,1165.77 1709.88,1170.66 1717.28,1174.28 1718.27,1177.22 1718.36,1180.81 1719.42,1188.13 1726.37,1204.66 1729.23,1211.15" allow="pedestrian delivery bicycle"/>
    <edge id="-1070599957" from="9825138880" to="9825138885" priority="1" type="highway.service" numLanes="1" speed="5.56" shape="1741.97,1096.94 1723.75,1094.87 1707.62,1077.90 1700.35,1072.60 1695.29,1070.85 1692.08,1072.12" allow="pedestrian delivery bicycle"/>
    <edge id="-1070599958" from="9825138887" to="9825138888" priority="1" type="highway.service" numLanes="1" speed="5.56" allow="pedestrian delivery bicycle"/>
    <edge id="-1090269919" from="4081150697" to="4081150703" priority="1" type="highway.path" numLanes="1" speed="5.56" shape="2883.93,880.87 2880.79,882.67 2859.53,894.71 2853.00,912.22 2841.24,935.01 2822.56,961.49 2809.40,971.81 2801.60,978.98 2784.14,975.96" width="2.00" allow="pedestrian bicycle"/>
    <edge id="-1090274271" from="10781255380" to="1617996008" priority="1" type="highway.path" numLanes="1" speed="5.56" shape="2789.68,889.76 2795.45,885.58 2804.84,884.10" width="2.00" allow="pedestrian bicycle"/>
    <edge id="-1090274272" from="1617996008" to="6490074418" priority="1" type="highway.path" numLanes="1" speed="5.56" shape="2804.84,884.10 2816.93,882.41 2838.54,882.29 2847.65,880.98 2862.37,880.62 2873.53,880.41 2879.93,880.69" width="2.00" allow="pedestrian bicycle"/>
    <edge id="-1095588885" from="10033260876" to="1264878543" priority="4" type="highway.unclassified" numLanes="1" speed="13.89" shape="1301.91,2089.26 1297.19,2090.12 1252.54,2095.45 1207.88,2098.99 1168.24,2103.28 1120.98,2110.42 1081.24,2119.05 1017.38,2135.88 970.72,2149.34 906.07,2168.67" disallow="bus tram rail_urban rail rail_electric rail_fast ship container cable_car subway aircraft wheelchair scooter drone"/>
    <edge id="-110901124#0" from="11896963922" to="1264878510" priority="4" type="highway.unclassified" numLanes="1" speed="13.89" shape="767.36,2230.00 761.83,2232.88 725.07,2254.97 702.65,2269.31 681.12,2283.37 625.90,2320.89 588.31,2344.41 565.34,2357.77 533.18,2375.81 499.14,2393.44 475.47,2404.81 422.82,2427.23 392.35,2440.32 376.24,2446.94 265.47,2490.41 185.23,2515.28 171.50,2520.53 160.21,2525.31 149.19,2530.89 113.87,2550.10 94.06,2560.44 86.58,2563.00 73.67,2567.21 44.86,2574.11 14.19,2583.47 6.45,2584.13 3.53,2583.86 0.00,2582.68" width="1.50" disallow="bus tram rail_urban rail rail_electric rail_fast ship container cable_car subway aircraft wheelchair scooter drone"/>
    <edge id="-110901124#1" from="1264878543" to="11896963922" priority="4" type="highway.unclassified" numLanes="1" speed="13.89" shape="906.07,2168.67 839.80,2196.23 791.49,2217.68 776.17,2225.41 767.36,2230.00" width="1.50" disallow="bus tram rail_urban rail rail_electric rail_fast ship container cable_car subway aircraft wheelchair scooter drone"/>
    <edge id="-1161066379" from="10799145650" to="10799145655" priority="1" type="highway.service" numLanes="1" speed="5.56" shape="1068.53,1227.83 1064.62,1224.66 1062.48,1221.06 1052.59,1189.45 1050.00,1184.70 1043.99,1180.12" allow="pedestrian delivery bicycle"/>
    <edge id="-1161066380#0" from="10799145664" to="925665156" priority="1" type="highway.service" numLanes="1" speed="5.56" shape="1102.02,1225.52 1090.85,1227.73 1085.60,1226.80 1080.81,1224.14 1076.27,1219.58" allow="pedestrian delivery bicycle"/>
    <edge id="-1161066380#1" from="10799145660" to="10799145664" priority="1" type="highway.service" numLanes="1" speed="5.56" shape="1126.63,1244.47 1125.24,1238.22 1118.33,1227.72 1114.32,1224.50 1102.02,1225.52" allow="pedestrian delivery bicycle"/>
    <edge id="-1161066380#2" from="10799145664" to="10799145660" priority="1" type="highway.service" numLanes="1" speed="5.56" shape="1102.02,1225.52 1114.66,1247.24 1118.50,1249.50 1122.59,1249.41 1126.63,1244.47" allow="pedestrian delivery bicycle"/>
    <edge id="-1226388270" from="2702111218" to="2702111208" priority="1" type="highway.path" numLanes="1" speed="5.56" width="2.00" allow="pedestrian bicycle"/>
    <edge id="-1234109633#0" from="11453268709" to="2792726057" priority="1" type="highway.service" numLanes="1" speed="5.56" allow="pedestrian delivery bicycle"/>
    <edge id="-1234109633#1" from="11453268710" to="11453268709" priority="1" type="highway.service" numLanes="1" speed="5.56" allow="pedestrian delivery bicycle"/>
    <edge id="-127242070#0" from="925665085" to="1408819922" priority="11" type="highway.secondary" numLanes="1" speed="19.44" shape="801.88,1515.52 724.62,1601.01 663.46,1673.97 529.94,1846.17 367.47,2095.64 280.30,2206.53 189.59,2305.74" disallow="tram rail_urban rail rail_electric rail_fast ship container cable_car subway aircraft wheelchair scooter drone">
        <param key="ref" value="D 514"/>
    </edge>
    <edge id="-127242070#1" from="2270956634" to="925665085" priority="11" type="highway.secondary" numLanes="1" speed="19.44" shape="1038.99,1255.07 1015.60,1271.68 997.68,1285.46 986.93,1295.12 976.75,1305.92 968.73,1315.17 925.90,1372.94 912.80,1388.42 891.29,1414.33 801.88,1515.52" disallow="tram rail_urban rail rail_electric rail_fast ship container cable_car subway aircraft wheelchair scooter drone">
        <param key="ref" value="D 514"/>
    </edge>
    <edge id="-128073698#0" from="1264878501" to="1416126514" priority="3" type="highway.residential" numLanes="1" speed="13.89" shape="1449.98,2242.34 1433.43,2239.50 1426.04,2238.81 1419.18,2238.51 1412.55,2240.38 1399.86,2245.96" disallow="tram rail_urban rail rail_electric rail_fast ship container cable_car subway aircraft wheelchair scooter drone"/>
    <edge id="-128073698#1" from="1264878518" to="1264878501" priority="3" type="highway.residential" numLanes="1" speed="13.89" shape="1482.94,2247.55 1475.97,2247.35 1469.85,2247.04 1464.22,2246.10 1449.98,2242.34" disallow="tram rail_urban rail rail_electric rail_fast ship container cable_car subway aircraft wheelchair scooter drone"/>
    <edge id="-128073698#2" from="1416126511" to="1264878518" priority="3" type="highway.residential" numLanes="1" speed="13.89" shape="1519.27,2245.34 1513.21,2245.79 1482.94,2247.55" disallow="tram rail_urban rail rail_electric rail_fast ship container cable_car subway aircraft wheelchair scooter drone"/>
    <edge id="-1281584087" from="9754497680" to="3621800351" priority="1" type="highway.path" numLanes="1" speed="5.56" shape="2254.26,1884.33 2259.74,1883.69 2280.10,1876.17" width="0.50" allow="pedestrian bicycle"/>
    <edge id="-1281967150" from="11896945011" to="11896945013" priority="1" type="highway.service" numLanes="1" speed="5.56" shape="1662.85,2145.05 1646.79,2139.30 1639.40,2137.18" allow="pedestrian delivery bicycle"/>
    <edge id="-1281967166" from="2290492157" to="11896963052" priority="1" type="highway.path" numLanes="1" speed="5.56" width="2.00" allow="pedestrian bicycle"/>
    <edge id="-1281967167#0" from="6467837359" to="2290492166" priority="1" type="highway.path" numLanes="1" speed="5.56" width="2.00" allow="pedestrian bicycle"/>
    <edge id="-1281967167#1" from="11896963053" to="6467837359" priority="1" type="highway.path" numLanes="1" speed="5.56" width="2.00" allow="pedestrian bicycle"/>
    <edge id="-1281967170#0" from="11896963060" to="11896963061" priority="1" type="highway.path" numLanes="1" speed="5.56" width="2.00" allow="pedestrian bicycle"/>
    <edge id="-1281967170#1" from="2290492160" to="11896963060" priority="1" type="highway.path" numLanes="1" speed="5.56" width="2.00" allow="pedestrian bicycle"/>
    <edge id="-1281967172" from="11896963062" to="11896963063" priority="1" type="highway.path" numLanes="1" speed="5.56" width="2.00" allow="pedestrian bicycle"/>
    <edge id="-1281967173" from="11896963068" to="11896963064" priority="1" type="highway.path" numLanes="1" speed="5.56" width="2.00" allow="pedestrian bicycle"/>
    <edge id="-1281967175#0" from="11896963066" to="11896963065" priority="1" type="highway.path" numLanes="1" speed="5.56" width="2.00" allow="pedestrian bicycle"/>
    <edge id="-1281967175#1" from="11896963067" to="11896963066" priority="1" type="highway.path" numLanes="1" speed="5.56" width="2.00" allow="pedestrian bicycle"/>
    <edge id="-1281967179" from="11896963091" to="11896963093" priority="1" type="highway.path" numLanes="1" speed="5.56" shape="2456.80,1947.42 2456.01,1944.73 2454.23,1940.11 2452.14,1936.65" width="2.00" allow="pedestrian bicycle"/>
    <edge id="-1281967186" from="11896963116" to="11896963125" priority="1" type="highway.service" numLanes="1" speed="5.56" shape="1682.20,2122.26 1682.57,2117.53 1683.40,2115.90 1685.71,2113.34 1696.35,2109.18 1700.31,2107.05 1701.54,2104.75 1701.22,2102.12 1699.04,2100.12 1683.88,2092.02" allow="pedestrian delivery bicycle"/>
    <edge id="-1281967189" from="11896963147" to="11896963148" priority="1" type="highway.service" numLanes="1" speed="5.56" allow="pedestrian delivery bicycle"/>
    <edge id="-1281967204" from="9753034347" to="11896963743" priority="1" type="highway.service" numLanes="1" speed="5.56" shape="2294.12,1992.72 2286.62,1980.69 2278.38,1986.00" allow="pedestrian delivery bicycle"/>
    <edge id="-1281967205" from="9753034356" to="11896963579" priority="1" type="highway.path" numLanes="1" speed="5.56" shape="2516.01,1921.16 2495.82,1930.55 2493.71,1931.12" width="2.00" allow="pedestrian bicycle"/>
    <edge id="-1281967206#0" from="11896963093" to="9753034347" priority="1" type="highway.path" numLanes="1" speed="5.56" shape="2452.14,1936.65 2446.68,1940.28 2437.83,1944.70 2433.42,1945.59 2430.14,1947.84 2424.04,1950.29 2420.09,1950.18 2416.37,1950.84 2412.57,1952.73 2409.17,1952.05 2406.24,1952.56 2402.29,1955.98 2395.72,1959.25 2386.58,1961.90 2383.07,1962.05 2380.61,1962.95 2373.27,1967.46 2371.22,1967.54 2351.05,1976.31 2346.64,1979.19 2340.93,1982.82 2335.65,1985.09 2332.25,1984.85 2328.36,1984.31 2325.69,1985.84 2322.83,1988.67 2318.87,1989.48 2315.27,1989.14 2309.34,1988.72 2306.27,1990.44 2304.76,1993.60 2296.83,1998.14 2294.12,1992.72" width="2.00" allow="pedestrian bicycle"/>
    <edge id="-1281967206#1" from="11896963579" to="11896963093" priority="1" type="highway.path" numLanes="1" speed="5.56" shape="2493.71,1931.12 2489.93,1932.23 2485.39,1932.30 2473.49,1936.19 2454.80,1935.46 2452.14,1936.65" width="2.00" allow="pedestrian bicycle"/>
    <edge id="-1281967209" from="11896963645" to="11896963652" priority="1" type="highway.service" numLanes="1" speed="5.56" shape="1430.86,2150.90 1424.14,2153.60 1419.17,2157.45 1411.25,2168.78 1406.14,2177.18 1402.68,2179.03 1398.51,2178.14 1387.20,2171.41" allow="pedestrian delivery bicycle"/>
    <edge id="-1281967211" from="9027127073" to="11896963670" priority="1" type="highway.service" numLanes="1" speed="5.56" allow="pedestrian delivery bicycle"/>
    <edge id="-1281967214" from="11896963692" to="11896963694" priority="1" type="highway.service" numLanes="1" speed="5.56" shape="1410.36,1148.47 1415.03,1155.58 1424.71,1171.79 1437.70,1191.79" allow="pedestrian delivery bicycle"/>
    <edge id="-1281967215" from="11896963698" to="11896963699" priority="1" type="highway.track" numLanes="1" speed="5.56" allow="pedestrian motorcycle moped bicycle"/>
    <edge id="-1281967216#0" from="2270917451" to="2270956634" priority="11" type="highway.secondary" numLanes="1" speed="13.89" disallow="tram rail_urban rail rail_electric rail_fast ship container cable_car subway aircraft wheelchair scooter drone">
        <param key="ref" value="D 514"/>
    </edge>
    <edge id="-1281967216#1" from="10799145650" to="2270917451" priority="11" type="highway.secondary" numLanes="1" speed="13.89" shape="1068.53,1227.83 1055.43,1241.77 1045.83,1250.13" disallow="tram rail_urban rail rail_electric rail_fast ship container cable_car subway aircraft wheelchair scooter drone">
        <param key="ref" value="D 514"/>
    </edge>
    <edge id="-1281967216#2" from="925665156" to="10799145650" priority="11" type="highway.secondary" numLanes="1" speed="13.89" disallow="tram rail_urban rail rail_electric rail_fast ship container cable_car subway aircraft wheelchair scooter drone">
        <param key="ref" value="D 514"/>
    </edge>
    <edge id="-1281967216#3" from="392053716" to="925665156" priority="11" type="highway.secondary" numLanes="1" speed="13.89" shape="1111.27,1182.29 1108.19,1185.13 1096.44,1197.06 1076.27,1219.58" disallow="tram rail_urban rail rail_electric rail_fast ship container cable_car subway aircraft wheelchair scooter drone">
        <param key="ref" value="D 514"/>
    </edge>
    <edge id="-1281967218" from="11896963717" to="11896963723" priority="1" type="highway.service" numLanes="1" speed="5.56" shape="2187.68,567.65 2166.10,536.02 2160.81,530.14 2144.44,522.87 2130.99,519.58 2121.86,521.75 2095.91,546.78" allow="pedestrian delivery bicycle"/>
    <edge id="-1281967220#0" from="11896963743" to="6694286436" priority="1" type="highway.service" numLanes="1" speed="5.56" allow="pedestrian delivery bicycle"/>
    <edge id="-1281967220#1" from="11896963742" to="11896963743" priority="1" type="highway.service" numLanes="1" speed="5.56" allow="pedestrian delivery bicycle"/>
    <edge id="-1281967231" from="9405922315" to="11896963922" priority="1" type="highway.path" numLanes="1" speed="5.56" shape="626.50,2613.32 631.15,2614.23 641.42,2612.76 649.20,2609.87 664.57,2593.30 672.18,2586.04 687.21,2581.31 706.72,2566.60 713.41,2564.16 731.97,2559.04 745.51,2551.84 759.26,2541.26 765.01,2533.83 766.15,2527.84 764.57,2518.67 765.90,2512.69 768.51,2509.94 774.75,2506.32 790.33,2503.07 803.21,2498.58 817.66,2490.82 822.12,2488.23 841.05,2480.20 845.66,2475.47 846.39,2470.05 824.15,2401.33 811.46,2370.86 785.07,2297.55 768.80,2266.01 766.75,2259.24 771.87,2250.26 772.63,2244.07 767.36,2230.00" width="2.00" allow="pedestrian bicycle"/>
    <edge id="-1281967232" from="11896963926" to="11896963931" priority="1" type="highway.service" numLanes="1" speed="5.56" shape="1463.42,2049.84 1470.59,2048.71 1486.91,2043.58 1493.29,2038.47 1499.43,2034.90 1506.04,2032.12" allow="pedestrian delivery bicycle"/>
    <edge id="-1281967233" from="11896963932" to="11896963933" priority="1" type="highway.service" numLanes="1" speed="5.56" allow="pedestrian delivery bicycle"/>
    <edge id="-1281967271#0" from="11896964573" to="11896964577" priority="1" type="highway.service" numLanes="1" speed="5.56" allow="pedestrian delivery bicycle"/>
    <edge id="-1281967271#1" from="11896964575" to="11896964573" priority="1" type="highway.service" numLanes="1" speed="5.56" shape="1545.66,926.94 1600.92,914.37 1606.53,938.89" allow="pedestrian delivery bicycle"/>
    <edge id="-1281967271#2" from="11896964573" to="11896964575" priority="1" type="highway.service" numLanes="1" speed="5.56" shape="1606.53,938.89 1551.27,951.45 1545.66,926.94" allow="pedestrian delivery bicycle"/>
    <edge id="-1281967274" from="11896964606" to="11896964607" priority="1" type="highway.service" numLanes="1" speed="5.56" allow="pedestrian delivery bicycle"/>
    <edge id="-1281967278" from="11896964657" to="11896964666" priority="1" type="highway.service" numLanes="1" speed="5.56" shape="1421.30,1720.09 1425.40,1723.52 1426.18,1726.85 1425.47,1731.34 1418.61,1774.44 1418.47,1789.97 1420.02,1797.20 1424.56,1809.09 1430.60,1822.77 1437.19,1831.22 1446.71,1835.86" allow="pedestrian delivery bicycle"/>
    <edge id="-1282385833#0" from="2270956746" to="11900542003" priority="1" type="highway.service" numLanes="1" speed="5.56" shape="991.27,1211.06 995.10,1205.33 1004.59,1200.54 1013.96,1196.62" allow="pedestrian delivery bicycle"/>
    <edge id="-1282385833#1" from="11900541997" to="2270956746" priority="1" type="highway.service" numLanes="1" speed="5.56" shape="981.15,1188.31 979.47,1192.55 980.80,1197.25 986.07,1204.10 991.27,1211.06" allow="pedestrian delivery bicycle"/>
    <edge id="-1282418714" from="11900780309" to="925665092" priority="1" type="highway.service" numLanes="1" speed="5.56" shape="1377.86,942.02 1382.36,937.78 1386.43,935.08 1394.06,930.76 1424.56,921.31" allow="pedestrian delivery bicycle"/>
    <edge id="-1282418722" from="11900795536" to="11900795554" priority="1" type="highway.path" numLanes="1" speed="5.56" width="2.00" allow="pedestrian bicycle"/>
    <edge id="-1282418723#0" from="11900795544" to="11900795539" priority="1" type="highway.service" numLanes="1" speed="5.56" shape="1403.99,1791.90 1399.89,1792.18 1367.32,1800.40" allow="pedestrian delivery bicycle"/>
    <edge id="-1282418723#1" from="11900795537" to="11900795544" priority="1" type="highway.service" numLanes="1" speed="5.56" allow="pedestrian delivery bicycle"/>
    <edge id="-1282418724#0" from="11900795554" to="11900795578" priority="1" type="highway.path" numLanes="1" speed="5.56" shape="1529.91,1572.64 1534.97,1565.60 1539.53,1556.10 1544.62,1541.38 1547.34,1531.16 1551.59,1511.75 1554.08,1495.98 1556.72,1474.87 1556.66,1459.62 1555.23,1441.21 1550.71,1400.96 1549.12,1373.99 1549.38,1354.47 1551.42,1337.42 1554.79,1321.69 1562.28,1301.10 1565.86,1291.68 1567.30,1285.50" width="2.00" allow="pedestrian bicycle"/>
    <edge id="-1282418724#1" from="11900795544" to="11900795554" priority="1" type="highway.path" numLanes="1" speed="5.56" shape="1403.99,1791.90 1405.29,1769.79 1410.47,1741.85 1416.66,1718.90 1423.00,1701.49 1434.91,1680.07 1440.86,1672.65 1450.27,1660.18 1504.88,1603.32 1518.35,1588.65 1529.91,1572.64" width="2.00" allow="pedestrian bicycle"/>
    <edge id="-1282418724#2" from="11900795540" to="11900795544" priority="1" type="highway.path" numLanes="1" speed="5.56" shape="1428.76,1902.77 1413.37,1850.07 1407.50,1830.28 1405.31,1814.48 1403.99,1791.90" width="2.00" allow="pedestrian bicycle"/>
    <edge id="-1282418725#0" from="11900795578" to="921210733" priority="1" type="highway.path" numLanes="1" speed="5.56" width="2.00" allow="pedestrian bicycle"/>
    <edge id="-1282418725#1" from="11900795571" to="11900795578" priority="1" type="highway.path" numLanes="1" speed="5.56" shape="1532.37,1190.95 1531.98,1196.86 1562.12,1251.25 1564.92,1259.10 1566.60,1268.67 1566.93,1278.01 1566.88,1282.87 1567.30,1285.50" width="2.00" allow="pedestrian bicycle"/>
    <edge id="-1282418726#0" from="1864144456" to="11900795581" priority="4" type="highway.unclassified" numLanes="1" speed="13.89" disallow="bus tram rail_urban rail rail_electric rail_fast ship container cable_car subway aircraft wheelchair scooter drone"/>
    <edge id="-1282418726#1" from="921210733" to="1864144456" priority="4" type="highway.unclassified" numLanes="1" speed="13.89" shape="1572.30,1285.53 1576.08,1285.24 1579.35,1284.62" disallow="bus tram rail_urban rail rail_electric rail_fast ship container cable_car subway aircraft wheelchair scooter drone"/>
    <edge id="-1282418727" from="11900795590" to="11900795597" priority="1" type="highway.service" numLanes="1" speed="5.56" shape="2086.22,1207.96 2087.27,1189.06 2088.61,1186.19 2091.61,1183.56 2099.56,1181.63 2106.33,1179.98 2109.47,1175.69 2110.69,1170.68" allow="pedestrian delivery bicycle"/>
    <edge id="-1282689196" from="11902704847" to="11902704850" priority="1" type="highway.service" numLanes="1" speed="5.56" shape="1484.34,1973.80 1481.30,1970.90 1457.45,1977.11 1449.66,1979.14" allow="pedestrian delivery bicycle"/>
    <edge id="-1282689197" from="11902892012" to="11902892014" priority="1" type="highway.service" numLanes="1" speed="5.56" allow="pedestrian delivery bicycle"/>
    <edge id="-1282689198#0" from="11902892014" to="11902892016" priority="1" type="highway.service" numLanes="1" speed="5.56" shape="1206.64,1452.90 1199.11,1457.41 1193.16,1460.41" allow="pedestrian delivery bicycle"/>
    <edge id="-1282689198#1" from="11902892013" to="11902892014" priority="1" type="highway.service" numLanes="1" speed="5.56" allow="pedestrian delivery bicycle"/>
    <edge id="-1282689199" from="11902892019" to="11902892025" priority="1" type="highway.service" numLanes="1" speed="5.56" shape="1399.43,1110.84 1408.60,1105.02 1412.19,1104.01 1416.41,1104.60 1420.13,1105.92 1423.36,1108.78 1429.30,1117.65" allow="pedestrian delivery bicycle"/>