<?xml version="1.0" encoding="UTF-8"?>

<!-- generated on 2025-04-03 15:09:55 by Eclipse SUMO netconvert Version 1.22.0
<netconvertConfiguration xmlns:xsi="http://www.w3.org/2001/XMLSchema-instance" xsi:noNamespaceSchemaLocation="http://sumo.dlr.de/xsd/netconvertConfiguration.xsd">

    <input>
        <sumo-net-file value="map.net.xml"/>
    </input>

    <output>
        <output-file value="map.rou.xml"/>
    </output>

    <processing>
        <geometry.min-radius.fix.railways value="false"/>
        <geometry.max-grade.fix value="false"/>
        <offset.disable-normalization value="true"/>
        <lefthand value="0"/>
    </processing>

    <junctions>
        <no-turnarounds value="true"/>
        <junctions.corner-detail value="5"/>
        <junctions.limit-turn-speed value="5.50"/>
        <rectangular-lane-cut value="0"/>
    </junctions>

    <pedestrian>
        <walkingareas value="0"/>
    </pedestrian>

</netconvertConfiguration>
-->

<net version="1.20" junctionCornerDetail="5" limitTurnSpeed="5.50" xmlns:xsi="http://www.w3.org/2001/XMLSchema-instance" xsi:noNamespaceSchemaLocation="http://sumo.dlr.de/xsd/net_file.xsd">

    <location netOffset="-652366.31,-5468513.80" convBoundary="0.00,0.00,3512.96,2614.23" origBoundary="-0.901047,49.349986,-0.853112,49.373630" projParameter="+proj=utm +zone=30 +ellps=WGS84 +datum=WGS84 +units=m +no_defs"/>

    <type id="highway.cycleway" priority="1" numLanes="1" speed="5.56" allow="bicycle" oneway="0" width="2.00"/>
    <type id="highway.footway" priority="1" numLanes="1" speed="2.78" allow="pedestrian" oneway="1" width="2.00"/>
    <type id="highway.path" priority="1" numLanes="1" speed="5.56" allow="pedestrian bicycle" oneway="0" width="2.00"/>
    <type id="highway.pedestrian" priority="1" numLanes="1" speed="2.78" allow="pedestrian" oneway="1" width="2.00"/>
    <type id="highway.residential" priority="3" numLanes="1" speed="13.89" disallow="tram rail_urban rail rail_electric rail_fast ship container cable_car subway aircraft wheelchair scooter drone" oneway="0"/>
    <type id="highway.secondary" priority="11" numLanes="1" speed="27.78" disallow="tram rail_urban rail rail_electric rail_fast ship container cable_car subway aircraft wheelchair scooter drone" oneway="0"/>
    <type id="highway.service" priority="1" numLanes="1" speed="5.56" allow="pedestrian delivery bicycle" oneway="0"/>
    <type id="highway.steps" priority="1" numLanes="1" speed="1.39" allow="pedestrian" oneway="1" width="2.00"/>
    <type id="highway.tertiary" priority="10" numLanes="1" speed="22.22" disallow="tram rail_urban rail rail_electric rail_fast ship container cable_car subway aircraft wheelchair scooter drone" oneway="0"/>
    <type id="highway.track" priority="1" numLanes="1" speed="5.56" allow="pedestrian motorcycle moped bicycle" oneway="0"/>
    <type id="highway.unclassified" priority="4" numLanes="1" speed="13.89" disallow="tram rail_urban rail rail_electric rail_fast ship container cable_car subway aircraft wheelchair scooter drone" oneway="0"/>

    <edge id=":10033260876_0" function="internal">
        <lane id=":10033260876_0_0" index="0" disallow="bus tram rail_urban rail rail_electric rail_fast ship container cable_car subway aircraft wheelchair scooter drone" speed="13.89" length="0.31" shape="1302.36,2090.80 1302.05,2090.86"/>
    </edge>
    <edge id=":10033260876_1" function="internal">
        <lane id=":10033260876_1_0" index="0" disallow="bus tram rail_urban rail rail_electric rail_fast ship container cable_car subway aircraft wheelchair scooter drone" speed="13.89" length="0.27" shape="1301.48,2087.71 1301.74,2087.66"/>
    </edge>
    <edge id=":10779441868_0" function="internal">
        <lane id=":10779441868_0_0" index="0" disallow="tram rail_urban rail rail_electric rail_fast ship container cable_car subway aircraft wheelchair scooter drone" speed="7.26" length="6.96" shape="1461.34,1028.31 1462.43,1029.45 1463.84,1030.20 1465.56,1030.56 1467.59,1030.53"/>
    </edge>
    <edge id=":10779441868_1" function="internal">
        <lane id=":10779441868_1_0" index="0" disallow="tram rail_urban rail rail_electric rail_fast ship container cable_car subway aircraft wheelchair scooter drone" speed="14.31" length="6.89" shape="1461.34,1028.31 1462.54,1029.96 1463.33,1031.15 1463.85,1032.45 1464.27,1034.42"/>
    </edge>
    <edge id=":10781255380_0" function="internal">
        <lane id=":10781255380_0_0" index="0" allow="pedestrian bicycle" speed="4.85" length="4.09" width="2.00" shape="2791.56,889.63 2790.60,890.15 2789.66,890.29 2788.73,890.06 2787.82,889.46"/>
    </edge>
    <edge id=":10781255380_1" function="internal">
        <lane id=":10781255380_1_0" index="0" allow="pedestrian bicycle" speed="3.11" length="1.36" width="2.00" shape="2789.14,887.96 2789.44,888.16 2789.75,888.23 2790.06,888.19 2790.38,888.01"/>
    </edge>
    <edge id=":10799145650_0" function="internal">
        <lane id=":10799145650_0_0" index="0" disallow="tram rail_urban rail rail_electric rail_fast ship container cable_car subway aircraft wheelchair scooter drone" speed="13.89" length="9.42" shape="1072.76,1225.66 1066.31,1232.53"/>
    </edge>
    <edge id=":10799145650_1" function="internal">
        <lane id=":10799145650_1_0" index="0" allow="pedestrian delivery bicycle" speed="7.05" length="3.13" shape="1072.76,1225.66 1070.66,1227.31 1070.22,1227.43"/>
    </edge>
    <edge id=":10799145650_7" function="internal">
        <lane id=":10799145650_7_0" index="0" allow="pedestrian delivery bicycle" speed="7.05" length="7.06" shape="1070.22,1227.43 1068.45,1227.91 1066.13,1227.46 1063.69,1225.96"/>
    </edge>
    <edge id=":10799145650_2" function="internal">
        <lane id=":10799145650_2_0" index="0" allow="pedestrian delivery bicycle" speed="4.92" length="5.74" shape="1065.76,1223.44 1066.73,1224.59 1067.83,1224.98 1069.07,1224.61 1070.43,1223.47"/>
    </edge>
    <edge id=":10799145650_3" function="internal">
        <lane id=":10799145650_3_0" index="0" allow="pedestrian delivery bicycle" speed="7.53" length="9.78" shape="1065.76,1223.44 1067.11,1226.23 1067.66,1228.68 1067.39,1230.77 1066.31,1232.53"/>
    </edge>
    <edge id=":10799145650_4" function="internal">
        <lane id=":10799145650_4_0" index="0" allow="pedestrian delivery bicycle" speed="3.84" length="4.77" shape="1065.76,1223.44 1066.19,1224.85 1065.98,1225.74 1065.15,1226.11 1063.69,1225.96"/>
    </edge>
    <edge id=":10799145650_5" function="internal">
        <lane id=":10799145650_5_0" index="0" allow="pedestrian delivery bicycle" speed="4.96" length="5.08" shape="1063.98,1230.34 1064.79,1229.18 1065.01,1228.07 1064.64,1227.00 1063.69,1225.96"/>
    </edge>
    <edge id=":10799145650_6" function="internal">
        <lane id=":10799145650_6_0" index="0" disallow="tram rail_urban rail rail_electric rail_fast ship container cable_car subway aircraft wheelchair scooter drone" speed="13.89" length="9.42" shape="1063.98,1230.34 1070.43,1223.47"/>
    </edge>
    <edge id=":10799145655_0" function="internal">
        <lane id=":10799145655_0_0" index="0" allow="pedestrian delivery bicycle" speed="3.65" length="4.67" shape="1043.02,1181.39 1042.55,1180.03 1042.72,1179.15 1043.52,1178.76 1044.96,1178.85"/>
    </edge>
    <edge id=":10799145660_0" function="internal">
        <lane id=":10799145660_0_0" index="0" allow="pedestrian delivery bicycle" speed="5.56" length="4.34" shape="1127.85,1242.61 1127.98,1243.71 1127.87,1244.76 1127.50,1245.75 1126.88,1246.69"/>
    </edge>
    <edge id=":10799145660_1" function="internal">
        <lane id=":10799145660_1_0" index="0" allow="pedestrian delivery bicycle" speed="4.10" length="1.45" shape="1124.41,1244.66 1124.61,1244.35 1124.73,1244.02 1124.77,1243.67 1124.73,1243.30"/>
    </edge>
    <edge id=":10799145664_0" function="internal">
        <lane id=":10799145664_0_0" index="0" allow="pedestrian delivery bicycle" speed="5.56" length="7.16" shape="1103.94,1232.00 1102.58,1229.98 1101.25,1228.61 1099.92,1227.89 1098.62,1227.82"/>
    </edge>
    <edge id=":10799145664_1" function="internal">
        <lane id=":10799145664_1_0" index="0" allow="pedestrian delivery bicycle" speed="5.56" length="12.77" shape="1103.94,1232.00 1102.50,1228.51 1102.77,1225.91 1104.75,1224.20 1108.43,1223.38"/>
    </edge>
    <edge id=":10799145664_2" function="internal">
        <lane id=":10799145664_2_0" index="0" allow="pedestrian delivery bicycle" speed="3.65" length="4.67" shape="1103.94,1232.00 1104.03,1230.56 1104.52,1229.81 1105.41,1229.76 1106.71,1230.39"/>
    </edge>
    <edge id=":10799145664_3" function="internal">
        <lane id=":10799145664_3_0" index="0" allow="pedestrian delivery bicycle" speed="4.71" length="5.66" shape="1108.70,1226.57 1107.07,1226.94 1106.19,1227.69 1106.07,1228.85 1106.71,1230.39"/>
    </edge>
    <edge id=":10799145664_4" function="internal">
        <lane id=":10799145664_4_0" index="0" allow="pedestrian delivery bicycle" speed="5.56" length="10.16" shape="1108.70,1226.57 1105.71,1226.81 1103.63,1226.99 1101.56,1227.28 1098.62,1227.82"/>
    </edge>
    <edge id=":10799145664_5" function="internal">
        <lane id=":10799145664_5_0" index="0" allow="pedestrian delivery bicycle" speed="3.65" length="4.67" shape="1108.70,1226.57 1107.44,1225.87 1106.97,1225.11 1107.30,1224.28 1108.43,1223.38"/>
    </edge>
    <edge id=":10799145664_6" function="internal">
        <lane id=":10799145664_6_0" index="0" allow="pedestrian delivery bicycle" speed="5.56" length="10.52" shape="1098.00,1224.68 1101.00,1224.13 1103.19,1223.82 1105.39,1223.62 1108.43,1223.38"/>
    </edge>
    <edge id=":10799145664_7" function="internal">
        <lane id=":10799145664_7_0" index="0" allow="pedestrian delivery bicycle" speed="5.56" length="11.12" shape="1098.00,1224.68 1100.35,1224.68 1102.59,1225.63 1104.71,1227.54 1106.71,1230.39"/>
    </edge>
    <edge id=":10799145664_8" function="internal">
        <lane id=":10799145664_8_0" index="0" allow="pedestrian delivery bicycle" speed="3.65" length="4.67" shape="1098.00,1224.68 1099.33,1225.24 1099.88,1225.94 1099.64,1226.81 1098.62,1227.82"/>
    </edge>
    <edge id=":10799145669_0" function="internal">
        <lane id=":10799145669_0_0" index="0" allow="pedestrian delivery bicycle" speed="6.95" length="12.04" shape="1297.48,1294.43 1286.50,1299.36"/>
    </edge>
    <edge id=":10799145669_1" function="internal">
        <lane id=":10799145669_1_0" index="0" allow="pedestrian delivery bicycle" speed="6.95" length="12.32" shape="1297.48,1294.43 1294.74,1295.10 1292.25,1294.43 1290.01,1292.42 1288.02,1289.06"/>
    </edge>
    <edge id=":10799145669_2" function="internal">
        <lane id=":10799145669_2_0" index="0" allow="pedestrian delivery bicycle" speed="3.65" length="4.67" shape="1297.48,1294.43 1296.06,1294.21 1295.35,1293.66 1295.38,1292.77 1296.12,1291.53"/>
    </edge>
    <edge id=":10799145669_3" function="internal">
        <lane id=":10799145669_3_0" index="0" allow="pedestrian delivery bicycle" speed="5.87" length="7.18" shape="1290.93,1287.72 1292.15,1289.88 1293.42,1291.24 1294.74,1291.79 1296.12,1291.53"/>
    </edge>
    <edge id=":10799145669_4" function="internal">
        <lane id=":10799145669_4_0" index="0" disallow="tram rail_urban rail rail_electric rail_fast ship container cable_car subway aircraft wheelchair scooter drone" speed="7.96" length="14.28" shape="1290.93,1287.72 1292.05,1291.48 1291.69,1294.67 1289.84,1297.30 1286.50,1299.36"/>
    </edge>
    <edge id=":10799145669_5" function="internal">
        <lane id=":10799145669_5_0" index="0" disallow="tram rail_urban rail rail_electric rail_fast ship container cable_car subway aircraft wheelchair scooter drone" speed="6.46" length="9.03" shape="1285.22,1296.42 1287.33,1295.12 1288.51,1293.46 1288.74,1291.44 1288.02,1289.06"/>
    </edge>
    <edge id=":10799145669_6" function="internal">
        <lane id=":10799145669_6_0" index="0" allow="pedestrian delivery bicycle" speed="6.95" length="11.95" shape="1285.22,1296.42 1296.12,1291.53"/>
    </edge>
    <edge id=":10836573555_0" function="internal">
        <lane id=":10836573555_0_0" index="0" disallow="tram rail_urban rail rail_electric rail_fast ship container cable_car subway aircraft wheelchair scooter drone" speed="13.89" length="11.25" shape="1961.35,670.56 1952.99,678.07"/>
    </edge>
    <edge id=":10836573555_1" function="internal">
        <lane id=":10836573555_1_0" index="0" allow="pedestrian delivery bicycle" speed="6.98" length="6.24" shape="1961.35,670.56 1956.46,674.21 1956.34,674.24"/>
    </edge>
    <edge id=":10836573555_7" function="internal">
        <lane id=":10836573555_7_0" index="0" allow="pedestrian delivery bicycle" speed="6.98" length="11.51" shape="1956.34,674.24 1953.30,674.80 1951.86,672.32 1952.15,666.78"/>
    </edge>
    <edge id=":10836573555_2" function="internal">
        <lane id=":10836573555_2_0" index="0" allow="pedestrian delivery bicycle" speed="4.77" length="7.38" shape="1955.40,666.60 1955.27,668.91 1955.87,669.94 1957.18,669.70 1959.21,668.18"/>
    </edge>
    <edge id=":10836573555_3" function="internal">
        <lane id=":10836573555_3_0" index="0" allow="pedestrian delivery bicycle" speed="9.72" length="12.13" shape="1955.40,666.60 1955.21,670.00 1955.29,672.94 1954.83,675.57 1952.99,678.07"/>
    </edge>
    <edge id=":10836573555_4" function="internal">
        <lane id=":10836573555_4_0" index="0" allow="pedestrian delivery bicycle" speed="3.67" length="4.76" shape="1955.40,666.60 1954.65,667.86 1953.86,668.31 1953.03,667.95 1952.15,666.78"/>
    </edge>
    <edge id=":10836573555_5" function="internal">
        <lane id=":10836573555_5_0" index="0" allow="pedestrian delivery bicycle" speed="9.72" length="9.44" shape="1950.87,675.68 1952.38,673.65 1952.50,671.77 1952.12,669.62 1952.15,666.78"/>
    </edge>
    <edge id=":10836573555_6" function="internal">
        <lane id=":10836573555_6_0" index="0" disallow="tram rail_urban rail rail_electric rail_fast ship container cable_car subway aircraft wheelchair scooter drone" speed="13.89" length="11.22" shape="1950.87,675.68 1959.21,668.18"/>
    </edge>
    <edge id=":10844325895_0" function="internal">
        <lane id=":10844325895_0_0" index="0" disallow="tram rail_urban rail rail_electric rail_fast ship container cable_car subway aircraft wheelchair scooter drone" speed="13.89" length="4.67" shape="1805.12,2204.24 1801.31,2206.95"/>
    </edge>
    <edge id=":10844325895_1" function="internal">
        <lane id=":10844325895_1_0" index="0" disallow="tram rail_urban rail rail_electric rail_fast ship container cable_car subway aircraft wheelchair scooter drone" speed="13.89" length="4.67" shape="1799.46,2204.34 1803.26,2201.64"/>
    </edge>
    <edge id=":11035330879_0" function="internal">
        <lane id=":11035330879_0_0" index="0" allow="pedestrian delivery bicycle" speed="3.65" length="4.67" shape="1716.50,1256.95 1715.76,1258.20 1714.99,1258.64 1714.17,1258.28 1713.30,1257.13"/>
    </edge>
    <edge id=":11453268696_0" function="internal">
        <lane id=":11453268696_0_0" index="0" disallow="tram rail_urban rail rail_electric rail_fast ship container cable_car subway aircraft wheelchair scooter drone" speed="8.33" length="4.99" shape="1741.14,2236.98 1736.61,2239.08"/>
    </edge>
    <edge id=":11453268696_1" function="internal">
        <lane id=":11453268696_1_0" index="0" disallow="tram rail_urban rail rail_electric rail_fast ship container cable_car subway aircraft wheelchair scooter drone" speed="8.33" length="4.97" shape="1735.27,2236.18 1739.77,2234.08"/>
    </edge>
    <edge id=":11453268709_0" function="internal">
        <lane id=":11453268709_0_0" index="0" allow="pedestrian delivery bicycle" speed="5.56" length="5.16" shape="1597.76,2274.87 1596.35,2274.29 1595.43,2273.78 1594.62,2273.09 1593.57,2271.99"/>
    </edge>
    <edge id=":11453268709_1" function="internal">
        <lane id=":11453268709_1_0" index="0" allow="pedestrian delivery bicycle" speed="3.65" length="1.44" shape="1597.76,2274.87 1596.94,2273.68"/>
    </edge>
    <edge id=":11453268709_4" function="internal">
        <lane id=":11453268709_4_0" index="0" allow="pedestrian delivery bicycle" speed="3.65" length="3.23" shape="1596.94,2273.68 1596.86,2272.79 1597.53,2272.20 1598.94,2271.89"/>
    </edge>
    <edge id=":11453268709_2" function="internal">
        <lane id=":11453268709_2_0" index="0" allow="pedestrian delivery bicycle" speed="5.56" length="3.72" shape="1595.92,2269.82 1596.68,2270.61 1597.26,2271.11 1597.93,2271.47 1598.94,2271.89"/>
    </edge>
    <edge id=":11453268709_3" function="internal">
        <lane id=":11453268709_3_0" index="0" allow="pedestrian delivery bicycle" speed="3.65" length="1.44" shape="1595.92,2269.82 1596.15,2271.24"/>
    </edge>
    <edge id=":11453268709_5" function="internal">
        <lane id=":11453268709_5_0" index="0" allow="pedestrian delivery bicycle" speed="3.65" length="3.23" shape="1596.15,2271.24 1595.83,2272.08 1594.98,2272.33 1593.57,2271.99"/>
    </edge>
    <edge id=":11453268710_0" function="internal">
        <lane id=":11453268710_0_0" index="0" allow="pedestrian delivery bicycle" speed="3.65" length="4.67" shape="1608.76,2275.79 1609.58,2276.97 1609.66,2277.86 1608.99,2278.46 1607.58,2278.76"/>
    </edge>
    <edge id=":11453268716_0" function="internal">
        <lane id=":11453268716_0_0" index="0" allow="pedestrian delivery bicycle" speed="3.65" length="4.67" shape="1493.72,2338.92 1492.39,2339.49 1491.50,2339.39 1491.05,2338.61 1491.04,2337.17"/>
    </edge>
    <edge id=":11843777063_0" function="internal">
        <lane id=":11843777063_0_0" index="0" disallow="tram rail_urban rail rail_electric rail_fast ship container cable_car subway aircraft wheelchair scooter drone" speed="13.89" length="6.49" shape="1437.96,987.15 1436.04,987.04 1434.70,987.00 1433.39,987.18 1431.57,987.73"/>
    </edge>
    <edge id=":11843777063_1" function="internal">
        <lane id=":11843777063_1_0" index="0" disallow="tram rail_urban rail rail_electric rail_fast ship container cable_car subway aircraft wheelchair scooter drone" speed="6.01" length="2.34" shape="1437.96,987.15 1435.88,986.63 1435.76,986.48"/>
    </edge>
    <edge id=":11843777063_2" function="internal">
        <lane id=":11843777063_2_0" index="0" disallow="tram rail_urban rail rail_electric rail_fast ship container cable_car subway aircraft wheelchair scooter drone" speed="3.65" length="1.44" shape="1437.96,987.15 1436.79,986.31"/>
    </edge>
    <edge id=":11843777063_6" function="internal">
        <lane id=":11843777063_6_0" index="0" disallow="tram rail_urban rail rail_electric rail_fast ship container cable_car subway aircraft wheelchair scooter drone" speed="6.01" length="7.00" shape="1435.76,986.48 1434.75,985.26 1434.57,983.03 1435.35,979.95"/>
    </edge>
    <edge id=":11843777063_7" function="internal">
        <lane id=":11843777063_7_0" index="0" disallow="tram rail_urban rail rail_electric rail_fast ship container cable_car subway aircraft wheelchair scooter drone" speed="3.65" length="3.23" shape="1436.79,986.31 1436.42,985.49 1436.84,984.71 1438.07,983.95"/>
    </edge>
    <edge id=":11843777063_3" function="internal">
        <lane id=":11843777063_3_0" index="0" disallow="tram rail_urban rail rail_electric rail_fast ship container cable_car subway aircraft wheelchair scooter drone" speed="8.08" length="6.97" shape="1430.57,984.69 1432.19,983.93 1433.53,982.89 1434.58,981.56 1435.35,979.95"/>
    </edge>
    <edge id=":11843777063_4" function="internal">
        <lane id=":11843777063_4_0" index="0" disallow="tram rail_urban rail rail_electric rail_fast ship container cable_car subway aircraft wheelchair scooter drone" speed="13.89" length="7.62" shape="1430.57,984.69 1432.71,984.03 1434.24,983.80 1435.81,983.83 1438.07,983.95"/>
    </edge>
    <edge id=":11843777063_5" function="internal">
        <lane id=":11843777063_5_0" index="0" disallow="tram rail_urban rail rail_electric rail_fast ship container cable_car subway aircraft wheelchair scooter drone" speed="3.65" length="1.44" shape="1430.57,984.69 1431.96,985.08"/>
    </edge>
    <edge id=":11843777063_8" function="internal">
        <lane id=":11843777063_8_0" index="0" disallow="tram rail_urban rail rail_electric rail_fast ship container cable_car subway aircraft wheelchair scooter drone" speed="3.65" length="3.23" shape="1431.96,985.08 1432.59,985.71 1432.46,986.60 1431.57,987.73"/>
    </edge>
    <edge id=":11843863077_0" function="internal">
        <lane id=":11843863077_0_0" index="0" allow="pedestrian motorcycle moped bicycle" speed="3.65" length="4.67" shape="2354.73,792.97 2353.40,792.40 2352.87,791.69 2353.12,790.83 2354.15,789.83"/>
    </edge>
    <edge id=":11896945011_0" function="internal">
        <lane id=":11896945011_0_0" index="0" allow="pedestrian delivery bicycle" speed="3.65" length="4.67" shape="1663.39,2143.54 1664.25,2144.70 1664.36,2145.59 1663.71,2146.21 1662.31,2146.56"/>
    </edge>
    <edge id=":11896945013_0" function="internal">
        <lane id=":11896945013_0_0" index="0" disallow="tram rail_urban rail rail_electric rail_fast ship container cable_car subway aircraft wheelchair scooter drone" speed="13.89" length="7.16" shape="1640.43,2144.96 1638.07,2138.21"/>
    </edge>
    <edge id=":11896945013_1" function="internal">
        <lane id=":11896945013_1_0" index="0" allow="pedestrian delivery bicycle" speed="6.73" length="4.69" shape="1640.43,2144.96 1639.41,2140.38"/>
    </edge>
    <edge id=":11896945013_7" function="internal">
        <lane id=":11896945013_7_0" index="0" allow="pedestrian delivery bicycle" speed="6.73" length="10.12" shape="1639.41,2140.38 1640.20,2137.66 1642.81,2136.78 1647.23,2137.76"/>
    </edge>
    <edge id=":11896945013_2" function="internal">
        <lane id=":11896945013_2_0" index="0" allow="pedestrian delivery bicycle" speed="4.67" length="6.31" shape="1646.35,2140.84 1644.46,2140.42 1643.35,2140.79 1643.02,2141.96 1643.45,2143.91"/>
    </edge>
    <edge id=":11896945013_3" function="internal">
        <lane id=":11896945013_3_0" index="0" allow="pedestrian delivery bicycle" speed="8.97" length="8.69" shape="1646.35,2140.84 1638.07,2138.21"/>
    </edge>
    <edge id=":11896945013_4" function="internal">
        <lane id=":11896945013_4_0" index="0" allow="pedestrian delivery bicycle" speed="3.65" length="4.68" shape="1646.35,2140.84 1645.41,2139.74 1645.25,2138.86 1645.85,2138.20 1647.23,2137.76"/>
    </edge>
    <edge id=":11896945013_5" function="internal">
        <lane id=":11896945013_5_0" index="0" allow="pedestrian delivery bicycle" speed="7.65" length="6.17" shape="1641.09,2137.15 1647.23,2137.76"/>
    </edge>
    <edge id=":11896945013_6" function="internal">
        <lane id=":11896945013_6_0" index="0" disallow="tram rail_urban rail rail_electric rail_fast ship container cable_car subway aircraft wheelchair scooter drone" speed="13.89" length="7.16" shape="1641.09,2137.15 1643.45,2143.91"/>
    </edge>
    <edge id=":11896963052_0" function="internal">
        <lane id=":11896963052_0_0" index="0" allow="pedestrian bicycle" speed="2.89" length="2.92" width="2.00" shape="2191.27,2049.90 2191.08,2050.78 2190.71,2051.20 2190.15,2051.15 2189.41,2050.64"/>
    </edge>
    <edge id=":11896963053_0" function="internal">
        <lane id=":11896963053_0_0" index="0" allow="pedestrian bicycle" speed="2.89" length="2.92" width="2.00" shape="1915.23,2170.41 1915.04,2171.29 1914.67,2171.71 1914.11,2171.66 1913.37,2171.15"/>
    </edge>
    <edge id=":11896963060_0" function="internal">
        <lane id=":11896963060_0_0" index="0" allow="bicycle" speed="3.99" length="3.11" width="1.50" shape="2008.98,2120.47 2008.58,2119.92 2007.99,2119.65 2007.22,2119.68 2006.26,2119.99"/>
    </edge>
    <edge id=":11896963060_1" function="internal">
        <lane id=":11896963060_1_0" index="0" allow="pedestrian bicycle" speed="5.56" length="4.40" width="2.00" shape="2009.21,2120.37 2007.40,2116.35"/>
    </edge>
    <edge id=":11896963060_2" function="internal">
        <lane id=":11896963060_2_0" index="0" allow="bicycle" speed="5.26" length="5.89" width="1.50" shape="2009.44,2120.26 2009.14,2118.96 2009.48,2117.77 2010.46,2116.70 2012.08,2115.76"/>
    </edge>
    <edge id=":11896963060_3" function="internal">
        <lane id=":11896963060_3_0" index="0" allow="pedestrian bicycle" speed="2.89" length="2.92" width="2.00" shape="2009.21,2120.37 2009.36,2119.48 2009.71,2119.04 2010.27,2119.07 2011.04,2119.55"/>
    </edge>
    <edge id=":11896963060_4" function="internal">
        <lane id=":11896963060_4_0" index="0" allow="bicycle" speed="3.88" length="3.07" width="1.50" shape="2012.70,2117.12 2011.84,2117.62 2011.31,2118.17 2011.12,2118.78 2011.26,2119.45"/>
    </edge>
    <edge id=":11896963060_5" function="internal">
        <lane id=":11896963060_5_0" index="0" allow="bicycle" speed="5.56" length="7.05" width="1.50" shape="2012.70,2117.12 2006.26,2119.99"/>
    </edge>
    <edge id=":11896963060_6" function="internal">
        <lane id=":11896963060_6_0" index="0" allow="bicycle" speed="5.31" length="6.24" width="1.50" shape="2012.70,2117.12 2010.73,2117.82 2009.16,2117.95 2007.97,2117.49 2007.18,2116.46"/>
    </edge>
    <edge id=":11896963060_7" function="internal">
        <lane id=":11896963060_7_0" index="0" allow="bicycle" speed="2.50" length="2.19" width="1.50" shape="2012.70,2117.12 2012.03,2117.02 2011.71,2116.75 2011.72,2116.33 2012.08,2115.76"/>
    </edge>
    <edge id=":11896963060_8" function="internal">
        <lane id=":11896963060_8_0" index="0" allow="bicycle" speed="3.90" length="2.97" width="1.50" shape="2009.45,2115.43 2009.83,2115.92 2010.40,2116.15 2011.14,2116.09 2012.08,2115.76"/>
    </edge>
    <edge id=":11896963060_9" function="internal">
        <lane id=":11896963060_9_0" index="0" allow="pedestrian bicycle" speed="5.56" length="4.41" width="2.00" shape="2009.23,2115.53 2011.04,2119.55"/>
    </edge>
    <edge id=":11896963060_10" function="internal">
        <lane id=":11896963060_10_0" index="0" allow="bicycle" speed="5.19" length="5.82" width="1.50" shape="2009.00,2115.63 2009.28,2116.90 2008.91,2118.05 2007.91,2119.08 2006.26,2119.99"/>
    </edge>
    <edge id=":11896963060_11" function="internal">
        <lane id=":11896963060_11_0" index="0" allow="pedestrian bicycle" speed="2.89" length="2.92" width="2.00" shape="2009.23,2115.53 2009.08,2116.42 2008.73,2116.85 2008.17,2116.83 2007.40,2116.35"/>
    </edge>
    <edge id=":11896963060_12" function="internal">
        <lane id=":11896963060_12_0" index="0" allow="bicycle" speed="3.78" length="2.96" width="1.50" shape="2005.67,2118.61 2006.54,2118.14 2007.08,2117.62 2007.29,2117.06 2007.18,2116.46"/>
    </edge>
    <edge id=":11896963060_13" function="internal">
        <lane id=":11896963060_13_0" index="0" allow="bicycle" speed="5.56" length="7.02" width="1.50" shape="2005.67,2118.61 2012.08,2115.76"/>
    </edge>
    <edge id=":11896963060_14" function="internal">
        <lane id=":11896963060_14_0" index="0" allow="bicycle" speed="5.39" length="6.34" width="1.50" shape="2005.67,2118.61 2007.66,2117.95 2009.25,2117.87 2010.46,2118.37 2011.26,2119.45"/>
    </edge>
    <edge id=":11896963060_15" function="internal">
        <lane id=":11896963060_15_0" index="0" allow="bicycle" speed="2.50" length="2.19" width="1.50" shape="2005.67,2118.61 2006.33,2118.73 2006.65,2119.00 2006.63,2119.42 2006.26,2119.99"/>
    </edge>
    <edge id=":11896963061_0" function="internal">
        <lane id=":11896963061_0_0" index="0" allow="pedestrian bicycle" speed="2.89" length="2.92" width="2.00" shape="2011.12,2119.73 2010.97,2120.62 2010.62,2121.05 2010.06,2121.03 2009.29,2120.55"/>
    </edge>
    <edge id=":11896963062_0" function="internal">
        <lane id=":11896963062_0_0" index="0" allow="pedestrian bicycle" speed="2.89" length="2.92" width="2.00" shape="2014.32,2127.20 2014.15,2128.08 2013.78,2128.50 2013.22,2128.46 2012.48,2127.96"/>
    </edge>
    <edge id=":11896963063_0" function="internal">
        <lane id=":11896963063_0_0" index="0" allow="pedestrian bicycle" speed="2.89" length="2.92" width="2.00" shape="2011.28,2125.05 2011.46,2124.17 2011.83,2123.75 2012.38,2123.79 2013.13,2124.29"/>
    </edge>
    <edge id=":11896963064_0" function="internal">
        <lane id=":11896963064_0_0" index="0" allow="pedestrian bicycle" speed="2.89" length="2.92" width="2.00" shape="2112.88,2080.80 2113.03,2079.91 2113.38,2079.47 2113.94,2079.50 2114.70,2079.97"/>
    </edge>
    <edge id=":11896963065_0" function="internal">
        <lane id=":11896963065_0_0" index="0" allow="pedestrian bicycle" speed="2.89" length="2.92" width="2.00" shape="2112.65,2075.46 2112.51,2076.34 2112.15,2076.78 2111.59,2076.76 2110.83,2076.28"/>
    </edge>
    <edge id=":11896963066_0" function="internal">
        <lane id=":11896963066_0_0" index="0" allow="bicycle" speed="4.01" length="3.13" width="1.50" shape="2110.52,2076.20 2110.11,2075.64 2109.52,2075.37 2108.74,2075.39 2107.79,2075.70"/>
    </edge>
    <edge id=":11896963066_1" function="internal">
        <lane id=":11896963066_1_0" index="0" allow="pedestrian bicycle" speed="5.56" length="4.42" width="2.00" shape="2110.75,2076.10 2108.93,2072.07"/>
    </edge>
    <edge id=":11896963066_2" function="internal">
        <lane id=":11896963066_2_0" index="0" allow="bicycle" speed="5.23" length="5.91" width="1.50" shape="2110.98,2075.99 2110.67,2074.68 2111.02,2073.49 2112.01,2072.44 2113.65,2071.52"/>
    </edge>
    <edge id=":11896963066_3" function="internal">
        <lane id=":11896963066_3_0" index="0" allow="pedestrian bicycle" speed="2.89" length="2.92" width="2.00" shape="2110.75,2076.10 2110.89,2075.21 2111.25,2074.77 2111.81,2074.80 2112.57,2075.27"/>
    </edge>
    <edge id=":11896963066_4" function="internal">