<?xml version="1.0" encoding="UTF-8"?>

<!-- generated on 2025-04-03 16:09:45 by Eclipse SUMO netedit Version 1.22.0
<neteditConfiguration xmlns:xsi="http://www.w3.org/2001/XMLSchema-instance" xsi:noNamespaceSchemaLocation="http://sumo.dlr.de/xsd/neteditConfiguration.xsd">

    <input>
        <sumocfg-file value="map.sumo.cfg"/>
        <additional-files value=""/>
        <route-files value="cars.rou.xml"/>
        <sumo-net-file value="map.net.xml"/>
    </input>

    <output>
        <output-file value="map.net.xml"/>
    </output>

    <processing>
        <geometry.min-radius.fix.railways value="false"/>
        <geometry.max-grade.fix value="false"/>
        <offset.disable-normalization value="true"/>
        <lefthand value="0"/>
    </processing>

    <junctions>
        <no-turnarounds value="true"/>
        <junctions.corner-detail value="5"/>
        <junctions.limit-turn-speed value="5.50"/>
        <rectangular-lane-cut value="0"/>
    </junctions>

    <pedestrian>
        <walkingareas value="0"/>
    </pedestrian>

    <netedit>
        <ignore.routeelements value="false"/>
    </netedit>

</neteditConfiguration>
-->

<net version="1.20" junctionCornerDetail="5" limitTurnSpeed="5.50" xmlns:xsi="http://www.w3.org/2001/XMLSchema-instance" xsi:noNamespaceSchemaLocation="http://sumo.dlr.de/xsd/net_file.xsd">

    <location netOffset="-652366.31,-5468513.80" convBoundary="0.00,0.00,2772.10,2584.13" origBoundary="-0.901047,49.349986,-0.853112,49.373630" projParameter="+proj=utm +zone=30 +ellps=WGS84 +datum=WGS84 +units=m +no_defs"/>

    <type id="highway.cycleway" priority="1" numLanes="1" speed="5.56" allow="bicycle" oneway="0" width="2.00"/>
    <type id="highway.footway" priority="1" numLanes="1" speed="2.78" allow="pedestrian" oneway="1" width="2.00"/>
    <type id="highway.path" priority="1" numLanes="1" speed="5.56" allow="pedestrian bicycle" oneway="0" width="2.00"/>
    <type id="highway.residential" priority="3" numLanes="1" speed="13.89" disallow="tram rail_urban rail rail_electric rail_fast ship container cable_car subway aircraft wheelchair scooter drone" oneway="0"/>
    <type id="highway.secondary" priority="11" numLanes="1" speed="27.78" disallow="tram rail_urban rail rail_electric rail_fast ship container cable_car subway aircraft wheelchair scooter drone" oneway="0"/>
    <type id="highway.service" priority="1" numLanes="1" speed="5.56" allow="pedestrian delivery bicycle" oneway="0"/>
    <type id="highway.steps" priority="1" numLanes="1" speed="1.39" allow="pedestrian" oneway="1" width="2.00"/>
    <type id="highway.tertiary" priority="10" numLanes="1" speed="22.22" disallow="tram rail_urban rail rail_electric rail_fast ship container cable_car subway aircraft wheelchair scooter drone" oneway="0"/>
    <type id="highway.track" priority="1" numLanes="1" speed="5.56" allow="pedestrian motorcycle moped bicycle" oneway="0"/>
    <type id="highway.unclassified" priority="4" numLanes="1" speed="13.89" disallow="tram rail_urban rail rail_electric rail_fast ship container cable_car subway aircraft wheelchair scooter drone" oneway="0"/>

    <edge id=":10033260876_0" function="internal">
        <lane id=":10033260876_0_0" index="0" disallow="bus tram rail_urban rail rail_electric rail_fast ship container cable_car subway aircraft wheelchair scooter drone" speed="13.89" length="0.31" shape="1302.36,2090.80 1302.05,2090.86"/>
    </edge>
    <edge id=":10033260876_1" function="internal">
        <lane id=":10033260876_1_0" index="0" disallow="bus tram rail_urban rail rail_electric rail_fast ship container cable_car subway aircraft wheelchair scooter drone" speed="13.89" length="0.27" shape="1301.48,2087.71 1301.74,2087.66"/>
    </edge>
    <edge id=":10779441868_0" function="internal">
        <lane id=":10779441868_0_0" index="0" disallow="tram rail_urban rail rail_electric rail_fast ship container cable_car subway aircraft wheelchair scooter drone" speed="7.26" length="6.96" shape="1461.34,1028.31 1462.43,1029.45 1463.84,1030.20 1465.56,1030.56 1467.59,1030.53"/>
    </edge>
    <edge id=":10779441868_1" function="internal">
        <lane id=":10779441868_1_0" index="0" disallow="tram rail_urban rail rail_electric rail_fast ship container cable_car subway aircraft wheelchair scooter drone" speed="14.31" length="6.89" shape="1461.34,1028.31 1462.54,1029.96 1463.33,1031.15 1463.85,1032.45 1464.27,1034.42"/>
    </edge>
    <edge id=":10799145650_0" function="internal">
        <lane id=":10799145650_0_0" index="0" disallow="tram rail_urban rail rail_electric rail_fast ship container cable_car subway aircraft wheelchair scooter drone" speed="13.89" length="0.30" shape="1069.80,1228.82 1069.59,1229.03"/>
    </edge>
    <edge id=":10799145650_1" function="internal">
        <lane id=":10799145650_1_0" index="0" disallow="tram rail_urban rail rail_electric rail_fast ship container cable_car subway aircraft wheelchair scooter drone" speed="13.89" length="0.30" shape="1067.26,1226.84 1067.47,1226.63"/>
    </edge>
    <edge id=":10799145669_0" function="internal">
        <lane id=":10799145669_0_0" index="0" disallow="tram rail_urban rail rail_electric rail_fast ship container cable_car subway aircraft wheelchair scooter drone" speed="6.07" length="7.87" shape="1292.61,1291.35 1293.23,1293.42 1293.03,1295.18 1292.01,1296.63 1290.16,1297.76"/>
    </edge>
    <edge id=":10799145669_1" function="internal">
        <lane id=":10799145669_1_0" index="0" disallow="tram rail_urban rail rail_electric rail_fast ship container cable_car subway aircraft wheelchair scooter drone" speed="3.90" length="2.62" shape="1288.89,1294.83 1289.50,1294.45 1289.84,1293.97 1289.91,1293.38 1289.70,1292.69"/>
    </edge>
    <edge id=":10836573555_0" function="internal">
        <lane id=":10836573555_0_0" index="0" disallow="tram rail_urban rail rail_electric rail_fast ship container cable_car subway aircraft wheelchair scooter drone" speed="13.89" length="0.31" shape="1955.39,675.94 1955.16,676.15"/>
    </edge>
    <edge id=":10836573555_1" function="internal">
        <lane id=":10836573555_1_0" index="0" disallow="tram rail_urban rail rail_electric rail_fast ship container cable_car subway aircraft wheelchair scooter drone" speed="13.89" length="0.28" shape="1953.04,673.75 1953.25,673.56"/>
    </edge>
    <edge id=":10844325895_0" function="internal">
        <lane id=":10844325895_0_0" index="0" disallow="tram rail_urban rail rail_electric rail_fast ship container cable_car subway aircraft wheelchair scooter drone" speed="13.89" length="0.30" shape="1803.41,2205.46 1803.16,2205.63"/>
    </edge>
    <edge id=":10844325895_1" function="internal">
        <lane id=":10844325895_1_0" index="0" disallow="tram rail_urban rail rail_electric rail_fast ship container cable_car subway aircraft wheelchair scooter drone" speed="13.89" length="0.30" shape="1801.31,2203.02 1801.56,2202.85"/>
    </edge>
    <edge id=":11453268696_0" function="internal">
        <lane id=":11453268696_0_0" index="0" disallow="tram rail_urban rail rail_electric rail_fast ship container cable_car subway aircraft wheelchair scooter drone" speed="8.33" length="3.97" shape="1741.14,2236.98 1737.54,2238.66"/>
    </edge>
    <edge id=":11453268696_1" function="internal">
        <lane id=":11453268696_1_0" index="0" disallow="tram rail_urban rail rail_electric rail_fast ship container cable_car subway aircraft wheelchair scooter drone" speed="8.33" length="3.95" shape="1736.20,2235.75 1739.77,2234.08"/>
    </edge>
    <edge id=":11843777063_0" function="internal">
        <lane id=":11843777063_0_0" index="0" disallow="tram rail_urban rail rail_electric rail_fast ship container cable_car subway aircraft wheelchair scooter drone" speed="13.89" length="6.49" shape="1437.96,987.15 1436.04,987.04 1434.70,987.00 1433.39,987.18 1431.57,987.73"/>
    </edge>
    <edge id=":11843777063_1" function="internal">
        <lane id=":11843777063_1_0" index="0" disallow="tram rail_urban rail rail_electric rail_fast ship container cable_car subway aircraft wheelchair scooter drone" speed="6.01" length="2.34" shape="1437.96,987.15 1435.88,986.63 1435.76,986.48"/>
    </edge>
    <edge id=":11843777063_2" function="internal">
        <lane id=":11843777063_2_0" index="0" disallow="tram rail_urban rail rail_electric rail_fast ship container cable_car subway aircraft wheelchair scooter drone" speed="3.65" length="1.44" shape="1437.96,987.15 1436.79,986.31"/>
    </edge>
    <edge id=":11843777063_6" function="internal">
        <lane id=":11843777063_6_0" index="0" disallow="tram rail_urban rail rail_electric rail_fast ship container cable_car subway aircraft wheelchair scooter drone" speed="6.01" length="7.00" shape="1435.76,986.48 1434.75,985.26 1434.57,983.03 1435.35,979.95"/>
    </edge>
    <edge id=":11843777063_7" function="internal">
        <lane id=":11843777063_7_0" index="0" disallow="tram rail_urban rail rail_electric rail_fast ship container cable_car subway aircraft wheelchair scooter drone" speed="3.65" length="3.23" shape="1436.79,986.31 1436.42,985.49 1436.84,984.71 1438.07,983.95"/>
    </edge>
    <edge id=":11843777063_3" function="internal">
        <lane id=":11843777063_3_0" index="0" disallow="tram rail_urban rail rail_electric rail_fast ship container cable_car subway aircraft wheelchair scooter drone" speed="8.08" length="6.97" shape="1430.57,984.69 1432.19,983.93 1433.53,982.89 1434.58,981.56 1435.35,979.95"/>
    </edge>
    <edge id=":11843777063_4" function="internal">
        <lane id=":11843777063_4_0" index="0" disallow="tram rail_urban rail rail_electric rail_fast ship container cable_car subway aircraft wheelchair scooter drone" speed="13.89" length="7.62" shape="1430.57,984.69 1432.71,984.03 1434.24,983.80 1435.81,983.83 1438.07,983.95"/>
    </edge>
    <edge id=":11843777063_5" function="internal">
        <lane id=":11843777063_5_0" index="0" disallow="tram rail_urban rail rail_electric rail_fast ship container cable_car subway aircraft wheelchair scooter drone" speed="3.65" length="1.44" shape="1430.57,984.69 1431.96,985.08"/>
    </edge>
    <edge id=":11843777063_8" function="internal">
        <lane id=":11843777063_8_0" index="0" disallow="tram rail_urban rail rail_electric rail_fast ship container cable_car subway aircraft wheelchair scooter drone" speed="3.65" length="3.23" shape="1431.96,985.08 1432.59,985.71 1432.46,986.60 1431.57,987.73"/>
    </edge>
    <edge id=":11896945013_0" function="internal">
        <lane id=":11896945013_0_0" index="0" disallow="tram rail_urban rail rail_electric rail_fast ship container cable_car subway aircraft wheelchair scooter drone" speed="13.89" length="1.88" shape="1637.94,2137.85 1638.56,2139.63"/>
    </edge>
    <edge id=":11896945013_1" function="internal">
        <lane id=":11896945013_1_0" index="0" disallow="tram rail_urban rail rail_electric rail_fast ship container cable_car subway aircraft wheelchair scooter drone" speed="13.89" length="1.88" shape="1641.58,2138.57 1640.96,2136.79"/>
    </edge>
    <edge id=":11896963052_0" function="internal">
        <lane id=":11896963052_0_0" index="0" allow="pedestrian bicycle" speed="2.89" length="2.92" width="2.00" shape="2191.27,2049.90 2191.08,2050.78 2190.71,2051.20 2190.15,2051.15 2189.41,2050.64"/>
    </edge>
    <edge id=":11896963060_0" function="internal">
        <lane id=":11896963060_0_0" index="0" allow="pedestrian bicycle" speed="5.56" length="4.39" width="2.00" shape="2009.21,2120.37 2007.41,2116.37"/>
    </edge>
    <edge id=":11896963060_1" function="internal">
        <lane id=":11896963060_1_0" index="0" allow="bicycle" speed="5.26" length="5.89" width="1.50" shape="2009.44,2120.26 2009.14,2118.96 2009.48,2117.77 2010.46,2116.70 2012.08,2115.76"/>
    </edge>
    <edge id=":11896963060_2" function="internal">
        <lane id=":11896963060_2_0" index="0" allow="pedestrian bicycle" speed="2.89" length="2.92" width="2.00" shape="2009.21,2120.37 2009.36,2119.48 2009.71,2119.04 2010.27,2119.07 2011.04,2119.55"/>
    </edge>
    <edge id=":11896963060_3" function="internal">
        <lane id=":11896963060_3_0" index="0" allow="bicycle" speed="3.88" length="3.07" width="1.50" shape="2012.70,2117.12 2011.84,2117.62 2011.31,2118.17 2011.12,2118.78 2011.26,2119.45"/>
    </edge>
    <edge id=":11896963060_4" function="internal">
        <lane id=":11896963060_4_0" index="0" allow="bicycle" speed="5.31" length="6.24" width="1.50" shape="2012.70,2117.12 2010.73,2117.83 2009.16,2117.95 2007.97,2117.50 2007.18,2116.47"/>
    </edge>
    <edge id=":11896963060_5" function="internal">
        <lane id=":11896963060_5_0" index="0" allow="bicycle" speed="2.50" length="2.19" width="1.50" shape="2012.70,2117.12 2012.03,2117.02 2011.71,2116.75 2011.72,2116.33 2012.08,2115.76"/>
    </edge>
    <edge id=":11896963060_6" function="internal">
        <lane id=":11896963060_6_0" index="0" allow="bicycle" speed="3.89" length="2.96" width="1.50" shape="2009.46,2115.44 2009.84,2115.93 2010.40,2116.15 2011.14,2116.09 2012.08,2115.76"/>
    </edge>
    <edge id=":11896963060_7" function="internal">
        <lane id=":11896963060_7_0" index="0" allow="pedestrian bicycle" speed="5.56" length="4.39" width="2.00" shape="2009.23,2115.54 2011.04,2119.55"/>
    </edge>
    <edge id=":11896963060_8" function="internal">
        <lane id=":11896963060_8_0" index="0" allow="pedestrian bicycle" speed="2.89" length="2.92" width="2.00" shape="2009.23,2115.54 2009.08,2116.43 2008.73,2116.87 2008.17,2116.84 2007.41,2116.37"/>
    </edge>
    <edge id=":11896963061_0" function="internal">
        <lane id=":11896963061_0_0" index="0" allow="pedestrian bicycle" speed="2.89" length="2.92" width="2.00" shape="2011.12,2119.73 2010.97,2120.62 2010.62,2121.05 2010.06,2121.03 2009.29,2120.55"/>
    </edge>
    <edge id=":11896963062_0" function="internal">
        <lane id=":11896963062_0_0" index="0" allow="pedestrian bicycle" speed="2.89" length="2.92" width="2.00" shape="2014.32,2127.20 2014.15,2128.08 2013.78,2128.50 2013.22,2128.46 2012.48,2127.96"/>
    </edge>
    <edge id=":11896963063_0" function="internal">
        <lane id=":11896963063_0_0" index="0" allow="pedestrian bicycle" speed="2.89" length="2.92" width="2.00" shape="2011.28,2125.05 2011.46,2124.17 2011.83,2123.75 2012.38,2123.79 2013.13,2124.29"/>
    </edge>
    <edge id=":11896963064_0" function="internal">
        <lane id=":11896963064_0_0" index="0" allow="pedestrian bicycle" speed="2.89" length="2.92" width="2.00" shape="2112.88,2080.80 2113.03,2079.91 2113.38,2079.47 2113.94,2079.50 2114.70,2079.97"/>
    </edge>
    <edge id=":11896963065_0" function="internal">
        <lane id=":11896963065_0_0" index="0" allow="pedestrian bicycle" speed="2.89" length="2.92" width="2.00" shape="2112.65,2075.46 2112.51,2076.34 2112.15,2076.78 2111.59,2076.76 2110.83,2076.28"/>
    </edge>
    <edge id=":11896963066_0" function="internal">
        <lane id=":11896963066_0_0" index="0" allow="bicycle" speed="4.01" length="3.13" width="1.50" shape="2110.52,2076.20 2110.11,2075.64 2109.52,2075.37 2108.74,2075.39 2107.79,2075.70"/>
    </edge>
    <edge id=":11896963066_1" function="internal">
        <lane id=":11896963066_1_0" index="0" allow="pedestrian bicycle" speed="5.56" length="4.42" width="2.00" shape="2110.75,2076.10 2108.93,2072.07"/>
    </edge>
    <edge id=":11896963066_2" function="internal">
        <lane id=":11896963066_2_0" index="0" allow="bicycle" speed="5.23" length="5.91" width="1.50" shape="2110.98,2075.99 2110.67,2074.68 2111.02,2073.49 2112.01,2072.44 2113.65,2071.52"/>
    </edge>
    <edge id=":11896963066_3" function="internal">
        <lane id=":11896963066_3_0" index="0" allow="pedestrian bicycle" speed="2.89" length="2.92" width="2.00" shape="2110.75,2076.10 2110.89,2075.21 2111.25,2074.77 2111.81,2074.80 2112.57,2075.27"/>
    </edge>
    <edge id=":11896963066_4" function="internal">
        <lane id=":11896963066_4_0" index="0" allow="bicycle" speed="3.84" length="3.05" width="1.50" shape="2114.25,2072.89 2113.38,2073.37 2112.85,2073.91 2112.66,2074.51 2112.80,2075.17"/>
    </edge>
    <edge id=":11896963066_5" function="internal">
        <lane id=":11896963066_5_0" index="0" allow="bicycle" speed="5.56" length="7.05" width="1.50" shape="2114.25,2072.89 2107.79,2075.70"/>
    </edge>
    <edge id=":11896963066_6" function="internal">
        <lane id=":11896963066_6_0" index="0" allow="bicycle" speed="5.35" length="6.25" width="1.50" shape="2114.25,2072.89 2112.26,2073.56 2110.68,2073.66 2109.49,2073.20 2108.70,2072.17"/>
    </edge>
    <edge id=":11896963066_7" function="internal">
        <lane id=":11896963066_7_0" index="0" allow="bicycle" speed="2.50" length="2.19" width="1.50" shape="2114.25,2072.89 2113.58,2072.77 2113.26,2072.50 2113.28,2072.09 2113.65,2071.52"/>
    </edge>
    <edge id=":11896963066_8" function="internal">
        <lane id=":11896963066_8_0" index="0" allow="bicycle" speed="3.94" length="3.02" width="1.50" shape="2110.98,2071.15 2111.36,2071.65 2111.94,2071.88 2112.70,2071.84 2113.65,2071.52"/>
    </edge>
    <edge id=":11896963066_9" function="internal">
        <lane id=":11896963066_9_0" index="0" allow="pedestrian bicycle" speed="5.56" length="4.42" width="2.00" shape="2110.75,2071.25 2112.57,2075.27"/>
    </edge>
    <edge id=":11896963066_10" function="internal">
        <lane id=":11896963066_10_0" index="0" allow="bicycle" speed="5.19" length="5.81" width="1.50" shape="2110.52,2071.35 2110.80,2072.62 2110.44,2073.76 2109.43,2074.79 2107.79,2075.70"/>
    </edge>
    <edge id=":11896963066_11" function="internal">
        <lane id=":11896963066_11_0" index="0" allow="pedestrian bicycle" speed="2.89" length="2.92" width="2.00" shape="2110.75,2071.25 2110.60,2072.14 2110.25,2072.57 2109.69,2072.55 2108.93,2072.07"/>
    </edge>
    <edge id=":11896963066_12" function="internal">
        <lane id=":11896963066_12_0" index="0" allow="bicycle" speed="3.78" length="2.95" width="1.50" shape="2107.19,2074.32 2108.06,2073.85 2108.60,2073.34 2108.82,2072.78 2108.70,2072.17"/>
    </edge>
    <edge id=":11896963066_13" function="internal">
        <lane id=":11896963066_13_0" index="0" allow="bicycle" speed="5.56" length="7.04" width="1.50" shape="2107.19,2074.32 2113.65,2071.52"/>
    </edge>
    <edge id=":11896963066_14" function="internal">
        <lane id=":11896963066_14_0" index="0" allow="bicycle" speed="5.39" length="6.35" width="1.50" shape="2107.19,2074.32 2109.18,2073.67 2110.78,2073.59 2111.98,2074.09 2112.80,2075.17"/>
    </edge>
    <edge id=":11896963066_15" function="internal">
        <lane id=":11896963066_15_0" index="0" allow="bicycle" speed="2.50" length="2.19" width="1.50" shape="2107.19,2074.32 2107.85,2074.44 2108.18,2074.71 2108.15,2075.13 2107.79,2075.70"/>
    </edge>
    <edge id=":11896963067_0" function="internal">
        <lane id=":11896963067_0_0" index="0" allow="pedestrian bicycle" speed="4.36" length="3.83" width="2.00" shape="2108.85,2071.89 2108.30,2071.05 2107.58,2070.60 2106.70,2070.52 2105.65,2070.83"/>
    </edge>
    <edge id=":11896963067_1" function="internal">
        <lane id=":11896963067_1_0" index="0" allow="pedestrian bicycle" speed="6.02" length="8.06" width="2.00" shape="2108.85,2071.89 2108.13,2069.60 2108.21,2067.71 2109.10,2066.21 2110.80,2065.10"/>
    </edge>
    <edge id=":11896963067_2" function="internal">
        <lane id=":11896963067_2_0" index="0" allow="pedestrian bicycle" speed="2.89" length="2.92" width="2.00" shape="2108.85,2071.89 2108.99,2071.00 2109.35,2070.57 2109.91,2070.59 2110.67,2071.07"/>
    </edge>
    <edge id=":11896963067_3" function="internal">
        <lane id=":11896963067_3_0" index="0" allow="pedestrian bicycle" speed="4.50" length="3.82" width="2.00" shape="2112.07,2068.04 2111.11,2068.60 2110.56,2069.30 2110.41,2070.12 2110.67,2071.07"/>
    </edge>
    <edge id=":11896963067_4" function="internal">
        <lane id=":11896963067_4_0" index="0" disallow="tram rail_urban rail rail_electric rail_fast ship container cable_car subway aircraft wheelchair scooter drone" speed="13.89" length="7.00" shape="2112.07,2068.04 2105.65,2070.83"/>
    </edge>
    <edge id=":11896963067_5" function="internal">
        <lane id=":11896963067_5_0" index="0" disallow="tram rail_urban rail rail_electric rail_fast ship container cable_car subway aircraft wheelchair scooter drone" speed="13.89" length="7.01" shape="2104.37,2067.90 2110.80,2065.10"/>
    </edge>
    <edge id=":11896963067_6" function="internal">
        <lane id=":11896963067_6_0" index="0" allow="pedestrian bicycle" speed="6.19" length="2.47" width="2.00" shape="2104.37,2067.90 2106.29,2067.43 2106.77,2067.54"/>
    </edge>
    <edge id=":11896963067_7" function="internal">
        <lane id=":11896963067_7_0" index="0" allow="pedestrian bicycle" speed="6.19" length="5.53" width="2.00" shape="2106.77,2067.54 2107.98,2067.80 2109.44,2069.01 2110.67,2071.07"/>
    </edge>
    <edge id=":11896963068_0" function="internal">
        <lane id=":11896963068_0_0" index="0" allow="pedestrian bicycle" speed="2.89" length="2.92" width="2.00" shape="2115.98,2082.78 2115.84,2083.67 2115.48,2084.10 2114.93,2084.08 2114.16,2083.60"/>
    </edge>
    <edge id=":11896963116_0" function="internal">
        <lane id=":11896963116_0_0" index="0" disallow="tram rail_urban rail rail_electric rail_fast ship container cable_car subway aircraft wheelchair scooter drone" speed="13.89" length="0.30" shape="1682.75,2123.77 1682.47,2123.84"/>
    </edge>
    <edge id=":11896963116_1" function="internal">
        <lane id=":11896963116_1_0" index="0" disallow="tram rail_urban rail rail_electric rail_fast ship container cable_car subway aircraft wheelchair scooter drone" speed="13.89" length="0.30" shape="1681.64,2120.75 1681.94,2120.67"/>
    </edge>
    <edge id=":11896963148_0" function="internal">
        <lane id=":11896963148_0_0" index="0" disallow="tram rail_urban rail rail_electric rail_fast ship container cable_car subway aircraft wheelchair scooter drone" speed="13.89" length="0.10" shape="2595.61,1813.42 2595.61,1813.42"/>
    </edge>
    <edge id=":11896963148_1" function="internal">
        <lane id=":11896963148_1_0" index="0" disallow="tram rail_urban rail rail_electric rail_fast ship container cable_car subway aircraft wheelchair scooter drone" speed="13.89" length="0.10" shape="2594.49,1810.42 2594.49,1810.42"/>
    </edge>
    <edge id=":11896963645_0" function="internal">
        <lane id=":11896963645_0_0" index="0" disallow="bus tram rail_urban rail rail_electric rail_fast ship container cable_car subway aircraft wheelchair scooter drone" speed="13.89" length="0.30" shape="1429.32,2151.37 1429.26,2151.08"/>
    </edge>
    <edge id=":11896963645_1" function="internal">
        <lane id=":11896963645_1_0" index="0" disallow="bus tram rail_urban rail rail_electric rail_fast ship container cable_car subway aircraft wheelchair scooter drone" speed="13.89" length="0.30" shape="1432.39,2150.42 1432.46,2150.72"/>
    </edge>
    <edge id=":11896963692_0" function="internal">
        <lane id=":11896963692_0_0" index="0" disallow="tram rail_urban rail rail_electric rail_fast ship container cable_car subway aircraft wheelchair scooter drone" speed="8.33" length="0.10" shape="1411.83,1149.10 1411.83,1149.10"/>
    </edge>
    <edge id=":11896963692_1" function="internal">
        <lane id=":11896963692_1_0" index="0" disallow="tram rail_urban rail rail_electric rail_fast ship container cable_car subway aircraft wheelchair scooter drone" speed="8.33" length="0.10" shape="1408.89,1147.84 1408.89,1147.84"/>
    </edge>
    <edge id=":11896963698_0" function="internal">
        <lane id=":11896963698_0_0" index="0" disallow="tram rail_urban rail rail_electric rail_fast ship container cable_car subway aircraft wheelchair scooter drone" speed="8.33" length="0.45" shape="1189.50,1333.35 1189.37,1333.39 1189.28,1333.42 1189.19,1333.44 1189.06,1333.47"/>
    </edge>
    <edge id=":11896963698_1" function="internal">
        <lane id=":11896963698_1_0" index="0" disallow="tram rail_urban rail rail_electric rail_fast ship container cable_car subway aircraft wheelchair scooter drone" speed="3.65" length="2.34" shape="1189.50,1333.35 1188.11,1332.95 1187.49,1332.31"/>
    </edge>
    <edge id=":11896963698_4" function="internal">
        <lane id=":11896963698_4_0" index="0" disallow="tram rail_urban rail rail_electric rail_fast ship container cable_car subway aircraft wheelchair scooter drone" speed="3.65" length="2.34" shape="1187.49,1332.31 1187.63,1331.43 1188.53,1330.30"/>
    </edge>
    <edge id=":11896963698_2" function="internal">
        <lane id=":11896963698_2_0" index="0" disallow="tram rail_urban rail rail_electric rail_fast ship container cable_car subway aircraft wheelchair scooter drone" speed="8.33" length="0.15" shape="1188.38,1330.34 1188.43,1330.33 1188.46,1330.32 1188.49,1330.31 1188.53,1330.30"/>
    </edge>
    <edge id=":11896963698_3" function="internal">
        <lane id=":11896963698_3_0" index="0" disallow="tram rail_urban rail rail_electric rail_fast ship container cable_car subway aircraft wheelchair scooter drone" speed="3.65" length="2.34" shape="1188.38,1330.34 1189.73,1330.87 1190.29,1331.56"/>
    </edge>
    <edge id=":11896963698_5" function="internal">
        <lane id=":11896963698_5_0" index="0" disallow="tram rail_urban rail rail_electric rail_fast ship container cable_car subway aircraft wheelchair scooter drone" speed="3.65" length="2.34" shape="1190.29,1331.56 1190.07,1332.43 1189.06,1333.47"/>
    </edge>
    <edge id=":11896963717_0" function="internal">
        <lane id=":11896963717_0_0" index="0" disallow="tram rail_urban rail rail_electric rail_fast ship container cable_car subway aircraft wheelchair scooter drone" speed="19.44" length="9.67" shape="2192.58,564.17 2186.48,571.67"/>
    </edge>
    <edge id=":11896963717_1" function="internal">
        <lane id=":11896963717_1_0" index="0" allow="pedestrian delivery bicycle" speed="6.69" length="3.61" shape="2192.58,564.17 2190.10,566.45 2189.87,566.52"/>
    </edge>
    <edge id=":11896963717_7" function="internal">
        <lane id=":11896963717_7_0" index="0" allow="pedestrian delivery bicycle" speed="6.69" length="8.12" shape="2189.87,566.52 2187.70,567.15 2185.36,566.25 2183.09,563.77"/>
    </edge>
    <edge id=":11896963717_2" function="internal">
        <lane id=":11896963717_2_0" index="0" allow="pedestrian delivery bicycle" speed="4.79" length="5.39" shape="2185.74,561.96 2186.78,563.11 2187.85,563.52 2188.96,563.20 2190.09,562.15"/>
    </edge>
    <edge id=":11896963717_3" function="internal">
        <lane id=":11896963717_3_0" index="0" allow="pedestrian delivery bicycle" speed="7.82" length="10.49" shape="2185.74,561.96 2187.26,564.73 2187.89,567.28 2187.63,569.59 2186.48,571.67"/>
    </edge>
    <edge id=":11896963717_4" function="internal">
        <lane id=":11896963717_4_0" index="0" allow="pedestrian delivery bicycle" speed="3.65" length="4.67" shape="2185.74,561.96 2185.75,563.41 2185.32,564.19 2184.43,564.31 2183.09,563.77"/>
    </edge>
    <edge id=":11896963717_5" function="internal">
        <lane id=":11896963717_5_0" index="0" allow="pedestrian delivery bicycle" speed="6.23" length="6.38" shape="2183.99,569.66 2184.57,568.51 2184.62,567.14 2184.12,565.56 2183.09,563.77"/>
    </edge>
    <edge id=":11896963717_6" function="internal">
        <lane id=":11896963717_6_0" index="0" disallow="tram rail_urban rail rail_electric rail_fast ship container cable_car subway aircraft wheelchair scooter drone" speed="19.44" length="9.68" shape="2183.99,569.66 2190.09,562.15"/>
    </edge>
    <edge id=":11896963723_0" function="internal">
        <lane id=":11896963723_0_0" index="0" allow="pedestrian delivery bicycle" speed="3.65" length="4.67" shape="2097.02,547.93 2095.60,548.19 2094.76,547.89 2094.49,547.04 2094.80,545.63"/>
    </edge>
    <edge id=":11896963742_0" function="internal">
        <lane id=":11896963742_0_0" index="0" allow="pedestrian delivery bicycle" speed="3.65" length="4.67" shape="2292.21,2007.18 2292.11,2008.62 2291.61,2009.36 2290.72,2009.41 2289.43,2008.76"/>
    </edge>
    <edge id=":11896963743_0" function="internal">
        <lane id=":11896963743_0_0" index="0" allow="pedestrian delivery bicycle" speed="5.56" length="7.44" shape="2279.22,1990.72 2278.14,1988.80 2277.36,1987.50 2276.46,1986.28 2275.04,1984.60"/>
    </edge>
    <edge id=":11896963743_1" function="internal">
        <lane id=":11896963743_1_0" index="0" allow="pedestrian delivery bicycle" speed="5.56" length="9.88" shape="2279.22,1990.72 2278.23,1988.22 2278.25,1985.97 2279.28,1983.96 2281.31,1982.21"/>
    </edge>
    <edge id=":11896963743_2" function="internal">
        <lane id=":11896963743_2_0" index="0" allow="pedestrian delivery bicycle" speed="3.65" length="4.67" shape="2279.22,1990.72 2279.32,1989.28 2279.82,1988.54 2280.71,1988.50 2282.00,1989.15"/>
    </edge>
    <edge id=":11896963743_3" function="internal">
        <lane id=":11896963743_3_0" index="0" allow="pedestrian delivery bicycle" speed="5.11" length="4.93" shape="2283.05,1984.90 2282.03,1985.77 2281.52,1986.77 2281.51,1987.90 2282.00,1989.15"/>
    </edge>
    <edge id=":11896963743_4" function="internal">
        <lane id=":11896963743_4_0" index="0" allow="pedestrian delivery bicycle" speed="5.56" length="8.85" shape="2283.05,1984.90 2280.69,1986.08 2278.56,1986.42 2276.68,1985.93 2275.04,1984.60"/>
    </edge>
    <edge id=":11896963743_5" function="internal">
        <lane id=":11896963743_5_0" index="0" allow="pedestrian delivery bicycle" speed="3.65" length="4.67" shape="2283.05,1984.90 2281.61,1984.87 2280.84,1984.42 2280.74,1983.53 2281.31,1982.21"/>
    </edge>
    <edge id=":11896963743_6" function="internal">